SM24
                    3D
 Structure written by MMmdl.
 50 53  0  0  1  0            999 V2000
    5.5015   -4.9142   -0.7712 C   0  0  0  0  0  0
    4.5304   -5.1428    0.2394 O   0  0  0  0  0  0
    3.3235   -4.4848    0.1389 C   0  0  0  0  0  0
    2.3725   -4.7283    1.1496 C   0  0  0  0  0  0
    1.1161   -4.0938    1.1256 C   0  0  0  0  0  0
    0.7813   -3.2000    0.0878 C   0  0  0  0  0  0
    1.7288   -2.9616   -0.9296 C   0  0  0  0  0  0
    2.9881   -3.5905   -0.9074 C   0  0  0  0  0  0
   -0.5328   -2.5374    0.0616 C   0  0  0  0  0  0
   -0.8510   -1.1538    0.0894 C   0  0  0  0  0  0
   -0.0295   -0.0003    0.1684 C   0  0  0  0  0  0
   -0.6525    1.2074    0.1671 N   0  0  0  0  0  0
   -1.9910    1.2648    0.1038 C   0  0  0  0  0  0
   -2.8744    0.2596    0.0461 N   0  0  0  0  0  0
   -2.2358   -0.9443    0.0431 C   0  0  0  0  0  0
   -2.8133   -2.2001    0.0057 O   0  0  0  0  0  0
   -1.7798   -3.1309    0.0178 C   0  0  0  0  0  0
   -2.2040   -4.5289   -0.0312 C   0  0  0  0  0  0
   -3.4060   -4.9312    0.5900 C   0  0  0  0  0  0
   -3.8256   -6.2751    0.5525 C   0  0  0  0  0  0
   -3.0481   -7.2510   -0.1182 C   0  0  0  0  0  0
   -1.8553   -6.8459   -0.7486 C   0  0  0  0  0  0
   -1.4385   -5.5020   -0.7091 C   0  0  0  0  0  0
   -3.3808   -8.5860   -0.2011 O   0  0  0  0  0  0
   -4.5684   -9.0190    0.4458 C   0  0  0  0  0  0
    1.3659   -0.0598    0.2721 N   0  0  0  0  0  0
    2.1682    1.1102   -0.0480 C   0  0  0  0  0  0
    3.6657    0.7795   -0.0247 C   0  0  0  0  0  0
    4.0361    0.1322   -1.2236 O   0  0  0  0  0  0
    6.4035   -5.5050   -0.5534 H   0  0  0  0  0  0
    5.7604   -3.8454   -0.7958 H   0  0  0  0  0  0
    5.0929   -5.2151   -1.7471 H   0  0  0  0  0  0
    2.6084   -5.4093    1.9542 H   0  0  0  0  0  0
    0.4041   -4.2968    1.9124 H   0  0  0  0  0  0
    1.4914   -2.2839   -1.7370 H   0  0  0  0  0  0
    3.6793   -3.3697   -1.7065 H   0  0  0  0  0  0
   -2.4148    2.2580    0.1056 H   0  0  0  0  0  0
   -4.0153   -4.2074    1.1114 H   0  0  0  0  0  0
   -4.7492   -6.5316    1.0483 H   0  0  0  0  0  0
   -1.2516   -7.5743   -1.2700 H   0  0  0  0  0  0
   -0.5233   -5.2254   -1.2110 H   0  0  0  0  0  0
   -4.6971  -10.1004    0.2908 H   0  0  0  0  0  0
   -5.4317   -8.4829    0.0247 H   0  0  0  0  0  0
   -4.4964   -8.8090    1.5232 H   0  0  0  0  0  0
    1.8551   -0.9905    0.5954 H   0  0  0  0  0  0
    1.9045    1.4720   -1.0527 H   0  0  0  0  0  0
    1.9724    1.9022    0.6899 H   0  0  0  0  0  0
    4.2449    1.7089    0.0786 H   0  0  0  0  0  0
    3.8816    0.1165    0.8261 H   0  0  0  0  0  0
    5.0793   -0.1796   -1.3807 H   0  0  0  0  0  0
  1  2  1  0  0  0
  1 30  1  0  0  0
  1 31  1  0  0  0
  1 32  1  0  0  0
  2  3  1  0  0  0
  3  8  1  0  0  0
  3  4  2  0  0  0
  4  5  1  0  0  0
  4 33  1  0  0  0
  5  6  2  0  0  0
  5 34  1  0  0  0
  6  7  1  0  0  0
  6  9  1  0  0  0
  7  8  2  0  0  0
  7 35  1  0  0  0
  8 36  1  0  0  0
  9 17  2  0  0  0
  9 10  1  0  0  0
 10 15  2  0  0  0
 10 11  1  0  0  0
 11 12  2  0  0  0
 11 26  1  0  0  0
 12 13  1  0  0  0
 13 14  2  0  0  0
 13 37  1  0  0  0
 14 15  1  0  0  0
 15 16  1  0  0  0
 16 17  1  0  0  0
 17 18  1  0  0  0
 18 23  1  0  0  0
 18 19  2  0  0  0
 19 20  1  0  0  0
 19 38  1  0  0  0
 20 21  2  0  0  0
 20 39  1  0  0  0
 21 22  1  0  0  0
 21 24  1  0  0  0
 22 23  2  0  0  0
 22 40  1  0  0  0
 23 41  1  0  0  0
 24 25  1  0  0  0
 25 42  1  0  0  0
 25 43  1  0  0  0
 25 44  1  0  0  0
 26 27  1  0  0  0
 26 45  1  0  0  0
 27 28  1  0  0  0
 27 46  1  0  0  0
 27 47  1  0  0  0
 28 29  1  0  0  0
 28 48  1  0  0  0
 28 49  1  0  0  0
 29 50  1  0  0  0
M  END
> <s_m_source_file>
SM24.smi

> <i_m_source_file_index>
1

> <i_lp_mmshare_version>
40011

> <i_f3d_flags>
0

> <s_lp_Force_Field>
OPLS_2005

> <r_lp_Energy>
28.4886806998485

> <b_lp_Chiralities_Consistent>
1

> <s_lp_Variant>
SM24-1

> <s_epik_input>
W0NIM11PYzFbY0hdW2NIXWMoW2NIXVtjSF0xKS1jMmMoLWMzW2NIXVtjSF1jKFtjSF1bY0hdMylPW0NIM10pb2MoYzI0KW5bY0hdbmM0W05IXVtDSDJdW0NIMl1bT0hd

> <s_epik_cmdline>
J2VwaWtfYXBwJywgJy1pbWFlJywgJ1NNMjQuOC45Lm1hZScsICctb21hZScsICdTTTI0LmVwaWsuOC45Lm1hZScsICctcCcsICcwLjAwMDA0NTM5OTkyOTgnLCAnLXBoJywgJzguOSc=

> <r_lp_tautomer_probability>
1

> <r_epik_Ionization_Penalty>
  0.0012

> <r_epik_Ionization_Penalty_Charging>
  0.0000

> <r_epik_Ionization_Penalty_Neutral>
  0.0012

> <r_epik_State_Penalty>
  0.0011

> <r_epik_Charging_Adjusted_Penalty>
0.0011370920800308

> <i_epik_Tot_Q>
0

> <i_epik_Tot_abs_Q>
0

$$$$
SM24
                    3D
 Structure written by MMmdl.
 51 54  0  0  1  0            999 V2000
    5.5015   -4.9142   -0.7712 C   0  0  0  0  0  0
    4.5304   -5.1428    0.2394 O   0  0  0  0  0  0
    3.3235   -4.4848    0.1389 C   0  0  0  0  0  0
    2.3725   -4.7283    1.1496 C   0  0  0  0  0  0
    1.1161   -4.0938    1.1256 C   0  0  0  0  0  0
    0.7813   -3.2000    0.0878 C   0  0  0  0  0  0
    1.7288   -2.9616   -0.9296 C   0  0  0  0  0  0
    2.9881   -3.5905   -0.9074 C   0  0  0  0  0  0
   -0.5328   -2.5374    0.0616 C   0  0  0  0  0  0
   -0.8510   -1.1538    0.0894 C   0  0  0  0  0  0
   -0.0295   -0.0003    0.1684 C   0  0  0  0  0  0
   -0.6525    1.2074    0.1671 N   0  0  0  0  0  0
   -1.9910    1.2648    0.1038 C   0  0  0  0  0  0
   -2.8744    0.2596    0.0461 N   0  3  0  0  0  0
   -2.2358   -0.9443    0.0431 C   0  0  0  0  0  0
   -2.8133   -2.2001    0.0057 O   0  0  0  0  0  0
   -1.7798   -3.1309    0.0178 C   0  0  0  0  0  0
   -2.2040   -4.5289   -0.0312 C   0  0  0  0  0  0
   -3.4060   -4.9312    0.5900 C   0  0  0  0  0  0
   -3.8256   -6.2751    0.5525 C   0  0  0  0  0  0
   -3.0481   -7.2510   -0.1182 C   0  0  0  0  0  0
   -1.8553   -6.8459   -0.7486 C   0  0  0  0  0  0
   -1.4385   -5.5020   -0.7091 C   0  0  0  0  0  0
   -3.3808   -8.5860   -0.2011 O   0  0  0  0  0  0
   -4.5684   -9.0190    0.4458 C   0  0  0  0  0  0
    1.3659   -0.0598    0.2721 N   0  0  0  0  0  0
    2.1682    1.1102   -0.0480 C   0  0  0  0  0  0
    3.6657    0.7795   -0.0247 C   0  0  0  0  0  0
    4.0361    0.1322   -1.2236 O   0  0  0  0  0  0
    6.4035   -5.5050   -0.5534 H   0  0  0  0  0  0
    5.7604   -3.8454   -0.7958 H   0  0  0  0  0  0
    5.0929   -5.2151   -1.7471 H   0  0  0  0  0  0
    2.6084   -5.4093    1.9542 H   0  0  0  0  0  0
    0.4041   -4.2968    1.9124 H   0  0  0  0  0  0
    1.4914   -2.2839   -1.7370 H   0  0  0  0  0  0
    3.6793   -3.3697   -1.7065 H   0  0  0  0  0  0
   -2.4148    2.2580    0.1056 H   0  0  0  0  0  0
   -4.0153   -4.2074    1.1114 H   0  0  0  0  0  0
   -4.7492   -6.5316    1.0483 H   0  0  0  0  0  0
   -1.2516   -7.5743   -1.2700 H   0  0  0  0  0  0
   -0.5233   -5.2254   -1.2110 H   0  0  0  0  0  0
   -4.6971  -10.1004    0.2908 H   0  0  0  0  0  0
   -5.4317   -8.4829    0.0247 H   0  0  0  0  0  0
   -4.4964   -8.8090    1.5232 H   0  0  0  0  0  0
    1.8551   -0.9905    0.5954 H   0  0  0  0  0  0
    1.9045    1.4720   -1.0527 H   0  0  0  0  0  0
    1.9724    1.9022    0.6899 H   0  0  0  0  0  0
    4.2449    1.7089    0.0786 H   0  0  0  0  0  0
    3.8816    0.1165    0.8261 H   0  0  0  0  0  0
    5.0793   -0.1796   -1.3807 H   0  0  0  0  0  0
   -3.9522    0.4760    0.0092 H   0  0  0  0  0  0
  1  2  1  0  0  0
  1 30  1  0  0  0
  1 31  1  0  0  0
  1 32  1  0  0  0
  2  3  1  0  0  0
  3  8  1  0  0  0
  3  4  2  0  0  0
  4  5  1  0  0  0
  4 33  1  0  0  0
  5  6  2  0  0  0
  5 34  1  0  0  0
  6  7  1  0  0  0
  6  9  1  0  0  0
  7  8  2  0  0  0
  7 35  1  0  0  0
  8 36  1  0  0  0
  9 17  2  0  0  0
  9 10  1  0  0  0
 10 15  2  0  0  0
 10 11  1  0  0  0
 11 12  2  0  0  0
 11 26  1  0  0  0
 12 13  1  0  0  0
 13 14  2  0  0  0
 13 37  1  0  0  0
 14 15  1  0  0  0
 14 51  1  0  0  0
 15 16  1  0  0  0
 16 17  1  0  0  0
 17 18  1  0  0  0
 18 23  1  0  0  0
 18 19  2  0  0  0
 19 20  1  0  0  0
 19 38  1  0  0  0
 20 21  2  0  0  0
 20 39  1  0  0  0
 21 22  1  0  0  0
 21 24  1  0  0  0
 22 23  2  0  0  0
 22 40  1  0  0  0
 23 41  1  0  0  0
 24 25  1  0  0  0
 25 42  1  0  0  0
 25 43  1  0  0  0
 25 44  1  0  0  0
 26 27  1  0  0  0
 26 45  1  0  0  0
 27 28  1  0  0  0
 27 46  1  0  0  0
 27 47  1  0  0  0
 28 29  1  0  0  0
 28 48  1  0  0  0
 28 49  1  0  0  0
 29 50  1  0  0  0
M  CHG  1  14   1
M  END
> <s_m_source_file>
SM24.smi

> <i_m_source_file_index>
1

> <i_lp_mmshare_version>
40011

> <i_f3d_flags>
0

> <s_lp_Force_Field>
OPLS_2005

> <r_lp_Energy>
28.4886806998485

> <b_lp_Chiralities_Consistent>
1

> <s_lp_Variant>
SM24-1

> <s_epik_input>
W0NIM11PYzFbY0hdW2NIXWMoW2NIXVtjSF0xKS1jMmMoLWMzW2NIXVtjSF1jKFtjSF1bY0hdMylPW0NIM10pb2MoYzI0KW5bY0hdbmM0W05IXVtDSDJdW0NIMl1bT0hd

> <s_epik_cmdline>
J2VwaWtfYXBwJywgJy1pbWFlJywgJ1NNMjQuOC45Lm1hZScsICctb21hZScsICdTTTI0LmVwaWsuOC45Lm1hZScsICctcCcsICcwLjAwMDA0NTM5OTkyOTgnLCAnLXBoJywgJzguOSc=

> <r_lp_tautomer_probability>
1

> <r_epik_Ionization_Penalty>
  3.6876

> <r_epik_Ionization_Penalty_Charging>
  3.6830

> <r_epik_Ionization_Penalty_Neutral>
  0.0046

> <r_epik_State_Penalty>
  4.0574

> <r_epik_Charging_Adjusted_Penalty>
7.74043581843843

> <i_epik_Tot_Q>
1

> <i_epik_Tot_abs_Q>
1

$$$$
SM24
                    3D
 Structure written by MMmdl.
 51 54  0  0  1  0            999 V2000
    5.5015   -4.9142   -0.7712 C   0  0  0  0  0  0
    4.5304   -5.1428    0.2394 O   0  0  0  0  0  0
    3.3235   -4.4848    0.1389 C   0  0  0  0  0  0
    2.3725   -4.7283    1.1496 C   0  0  0  0  0  0
    1.1161   -4.0938    1.1256 C   0  0  0  0  0  0
    0.7813   -3.2000    0.0878 C   0  0  0  0  0  0
    1.7288   -2.9616   -0.9296 C   0  0  0  0  0  0
    2.9881   -3.5905   -0.9074 C   0  0  0  0  0  0
   -0.5328   -2.5374    0.0616 C   0  0  0  0  0  0
   -0.8510   -1.1538    0.0894 C   0  0  0  0  0  0
   -0.0295   -0.0003    0.1684 C   0  0  0  0  0  0
   -0.6525    1.2074    0.1671 N   0  0  0  0  0  0
   -1.9910    1.2648    0.1038 C   0  0  0  0  0  0
   -2.8744    0.2596    0.0461 N   0  0  0  0  0  0
   -2.2358   -0.9443    0.0431 C   0  0  0  0  0  0
   -2.8133   -2.2001    0.0057 O   0  0  0  0  0  0
   -1.7798   -3.1309    0.0178 C   0  0  0  0  0  0
   -2.2040   -4.5289   -0.0312 C   0  0  0  0  0  0
   -3.4060   -4.9312    0.5900 C   0  0  0  0  0  0
   -3.8256   -6.2751    0.5525 C   0  0  0  0  0  0
   -3.0481   -7.2510   -0.1182 C   0  0  0  0  0  0
   -1.8553   -6.8459   -0.7486 C   0  0  0  0  0  0
   -1.4385   -5.5020   -0.7091 C   0  0  0  0  0  0
   -3.3808   -8.5860   -0.2011 O   0  0  0  0  0  0
   -4.5684   -9.0190    0.4458 C   0  0  0  0  0  0
    1.3659   -0.0598    0.2721 N   0  3  0  0  0  0
    2.1682    1.1102   -0.0480 C   0  0  0  0  0  0
    3.6657    0.7795   -0.0247 C   0  0  0  0  0  0
    4.0361    0.1322   -1.2236 O   0  0  0  0  0  0
    6.4035   -5.5050   -0.5534 H   0  0  0  0  0  0
    5.7604   -3.8454   -0.7958 H   0  0  0  0  0  0
    5.0929   -5.2151   -1.7471 H   0  0  0  0  0  0
    2.6084   -5.4093    1.9542 H   0  0  0  0  0  0
    0.4041   -4.2968    1.9124 H   0  0  0  0  0  0
    1.4914   -2.2839   -1.7370 H   0  0  0  0  0  0
    3.6793   -3.3697   -1.7065 H   0  0  0  0  0  0
   -2.4148    2.2580    0.1056 H   0  0  0  0  0  0
   -4.0153   -4.2074    1.1114 H   0  0  0  0  0  0
   -4.7492   -6.5316    1.0483 H   0  0  0  0  0  0
   -1.2516   -7.5743   -1.2700 H   0  0  0  0  0  0
   -0.5233   -5.2254   -1.2110 H   0  0  0  0  0  0
   -4.6971  -10.1004    0.2908 H   0  0  0  0  0  0
   -5.4317   -8.4829    0.0247 H   0  0  0  0  0  0
   -4.4964   -8.8090    1.5232 H   0  0  0  0  0  0
    1.9045    1.4720   -1.0527 H   0  0  0  0  0  0
    1.9724    1.9022    0.6899 H   0  0  0  0  0  0
    4.2449    1.7089    0.0786 H   0  0  0  0  0  0
    3.8816    0.1165    0.8261 H   0  0  0  0  0  0
    5.0793   -0.1796   -1.3807 H   0  0  0  0  0  0
   -3.9522    0.4760    0.0092 H   0  0  0  0  0  0
    1.8542   -0.9909    0.5955 H   0  0  0  0  0  0
  1  2  1  0  0  0
  1 30  1  0  0  0
  1 31  1  0  0  0
  1 32  1  0  0  0
  2  3  1  0  0  0
  3  8  1  0  0  0
  3  4  2  0  0  0
  4  5  1  0  0  0
  4 33  1  0  0  0
  5  6  2  0  0  0
  5 34  1  0  0  0
  6  7  1  0  0  0
  6  9  1  0  0  0
  7  8  2  0  0  0
  7 35  1  0  0  0
  8 36  1  0  0  0
  9 17  2  0  0  0
  9 10  1  0  0  0
 10 15  2  0  0  0
 10 11  1  0  0  0
 11 12  1  0  0  0
 11 26  2  0  0  0
 12 13  2  0  0  0
 13 14  1  0  0  0
 13 37  1  0  0  0
 14 15  1  0  0  0
 14 50  1  0  0  0
 15 16  1  0  0  0
 16 17  1  0  0  0
 17 18  1  0  0  0
 18 23  1  0  0  0
 18 19  2  0  0  0
 19 20  1  0  0  0
 19 38  1  0  0  0
 20 21  2  0  0  0
 20 39  1  0  0  0
 21 22  1  0  0  0
 21 24  1  0  0  0
 22 23  2  0  0  0
 22 40  1  0  0  0
 23 41  1  0  0  0
 24 25  1  0  0  0
 25 42  1  0  0  0
 25 43  1  0  0  0
 25 44  1  0  0  0
 26 27  1  0  0  0
 26 51  1  0  0  0
 27 28  1  0  0  0
 27 45  1  0  0  0
 27 46  1  0  0  0
 28 29  1  0  0  0
 28 47  1  0  0  0
 28 48  1  0  0  0
 29 49  1  0  0  0
M  CHG  1  26   1
M  END
> <s_m_source_file>
SM24.smi

> <i_m_source_file_index>
1

> <i_lp_mmshare_version>
40011

> <i_f3d_flags>
0

> <s_lp_Force_Field>
OPLS_2005

> <r_lp_Energy>
28.4886806998485

> <b_lp_Chiralities_Consistent>
1

> <s_lp_Variant>
SM24-1

> <s_epik_input>
W0NIM11PYzFbY0hdW2NIXWMoW2NIXVtjSF0xKS1jMmMoLWMzW2NIXVtjSF1jKFtjSF1bY0hdMylPW0NIM10pb2MoYzI0KW5bY0hdbmM0W05IXVtDSDJdW0NIMl1bT0hd

> <s_epik_cmdline>
J2VwaWtfYXBwJywgJy1pbWFlJywgJ1NNMjQuOC45Lm1hZScsICctb21hZScsICdTTTI0LmVwaWsuOC45Lm1hZScsICctcCcsICcwLjAwMDA0NTM5OTkyOTgnLCAnLXBoJywgJzguOSc=

> <r_lp_tautomer_probability>
1

> <r_epik_Ionization_Penalty>
  4.4046

> <r_epik_Ionization_Penalty_Charging>
  0.0055

> <r_epik_Ionization_Penalty_Neutral>
  4.3990

> <r_epik_State_Penalty>
  4.1849

> <r_epik_Charging_Adjusted_Penalty>
4.19045575524369

> <i_epik_Tot_Q>
1

> <i_epik_Tot_abs_Q>
1

> <s_epik_Chemistry_Notes>
This compound has an imine and may undergo hydrolysis.

$$$$
