SM03
                    3D
 Structure written by MMmdl.
 30 32  0  0  1  0            999 V2000
   -1.5956    4.0417   -0.0282 C   0  0  0  0  0  0
   -1.3775    3.3433   -1.2316 C   0  0  0  0  0  0
   -0.8489    2.0379   -1.2030 C   0  0  0  0  0  0
   -0.5371    1.4268    0.0299 C   0  0  0  0  0  0
   -0.7556    2.1298    1.2334 C   0  0  0  0  0  0
   -1.2843    3.4350    1.2041 C   0  0  0  0  0  0
    0.0361    0.0230    0.0618 C   0  0  0  0  0  0
    1.5280    0.0215    0.0206 C   0  0  0  0  0  0
    2.2829    0.0603    1.1256 N   0  0  0  0  0  0
    3.6400    0.0526    0.8362 N   0  0  0  0  0  0
    3.8695    0.0081   -0.4833 C   0  0  0  0  0  0
    2.4314   -0.0268   -1.4889 S   0  0  0  0  0  0
    5.1672   -0.0156   -1.0590 N   0  0  0  0  0  0
    6.3618    0.0111   -0.4377 C   0  0  0  0  0  0
    6.5093    0.0780    0.7834 O   0  5  0  0  0  0
    7.5315   -0.0442   -1.3421 C   0  0  0  0  0  0
    7.6245   -0.1326   -2.7099 C   0  0  0  0  0  0
    8.9705   -0.1643   -3.1801 C   0  0  0  0  0  0
    9.8899   -0.1010   -2.1671 C   0  0  0  0  0  0
    9.1193    0.0009   -0.6076 S   0  0  0  0  0  0
   -2.0007    5.0426   -0.0503 H   0  0  0  0  0  0
   -1.6151    3.8090   -2.1766 H   0  0  0  0  0  0
   -0.6814    1.5085   -2.1296 H   0  0  0  0  0  0
   -0.5157    1.6707    2.1814 H   0  0  0  0  0  0
   -1.4501    3.9708    2.1271 H   0  0  0  0  0  0
   -0.2804   -0.4813    0.9868 H   0  0  0  0  0  0
   -0.3301   -0.5425   -0.8077 H   0  0  0  0  0  0
    6.7834   -0.1766   -3.3860 H   0  0  0  0  0  0
    9.2143   -0.2328   -4.2300 H   0  0  0  0  0  0
   10.9674   -0.1083   -2.2405 H   0  0  0  0  0  0
  1  6  1  0  0  0
  1  2  2  0  0  0
  1 21  1  0  0  0
  2  3  1  0  0  0
  2 22  1  0  0  0
  3  4  2  0  0  0
  3 23  1  0  0  0
  4  5  1  0  0  0
  4  7  1  0  0  0
  5  6  2  0  0  0
  5 24  1  0  0  0
  6 25  1  0  0  0
  7  8  1  0  0  0
  7 26  1  0  0  0
  7 27  1  0  0  0
  8 12  1  0  0  0
  8  9  2  0  0  0
  9 10  1  0  0  0
 10 11  2  0  0  0
 11 12  1  0  0  0
 11 13  1  0  0  0
 13 14  2  0  0  0
 14 15  1  0  0  0
 14 16  1  0  0  0
 16 20  1  0  0  0
 16 17  2  0  0  0
 17 18  1  0  0  0
 17 28  1  0  0  0
 18 19  2  0  0  0
 18 29  1  0  0  0
 19 20  1  0  0  0
 19 30  1  0  0  0
M  CHG  1  15  -1
M  END
> <s_m_source_file>
SM03.smi

> <i_m_source_file_index>
1

> <i_lp_mmshare_version>
40011

> <i_f3d_flags>
0

> <s_lp_Force_Field>
OPLS_2005

> <r_lp_Energy>
10.7827096887977

> <b_lp_Chiralities_Consistent>
1

> <s_lp_Variant>
SM03-1

> <s_epik_input>
W2NIXTFbY0hdW2NIXVtjSF1bY0hdYzFbQ0gyXWMybm5jKHMyKVtOSF1DKD1PKWMzW2NIXVtjSF1bY0hdczM=

> <s_epik_cmdline>
J2VwaWtfYXBwJywgJy1pbWFlJywgJ1NNMDMuMTEuOC5tYWUnLCAnLW9tYWUnLCAnU00wMy5lcGlrLjExLjgubWFlJywgJy1wJywgJzAuMDAwMDQ1Mzk5OTI5OCcsICctcGgnLCAnMTEuOCc=

> <r_epik_Ionization_Penalty>
  0.0000

> <r_epik_Ionization_Penalty_Charging>
  0.0000

> <r_epik_Ionization_Penalty_Neutral>
  0.0000

> <r_epik_State_Penalty>
  0.0000

> <r_epik_Charging_Adjusted_Penalty>
1.83651696088891e-05

> <i_epik_Tot_Q>
-1

> <i_epik_Tot_abs_Q>
1

$$$$
