SM04
                    3D
 Structure written by MMmdl.
 31 33  0  0  1  0            999 V2000
   -4.3524    0.1983    0.0002 C   0  0  0  0  0  0
   -4.9712    1.4611   -0.0002 C   0  0  0  0  0  0
   -4.1868    2.6301   -0.0004 C   0  0  0  0  0  0
   -2.7779    2.5580   -0.0005 C   0  0  0  0  0  0
   -2.1582    1.2760   -0.0002 C   0  0  0  0  0  0
   -2.9487    0.1031    0.0002 C   0  0  0  0  0  0
   -0.7387    1.2472   -0.0003 C   0  0  0  0  0  0
   -0.0220    2.3960   -0.0008 N   0  0  0  0  0  0
   -0.7022    3.5427   -0.0010 C   0  0  0  0  0  0
   -2.0282    3.6829   -0.0008 N   0  0  0  0  0  0
   -0.0439    0.0263    0.0004 N   0  0  0  0  0  0
    1.4107   -0.0153    0.0009 C   0  0  0  0  0  0
    1.9559   -1.4282    0.0043 C   0  0  0  0  0  0
    2.2042   -2.0883    1.2258 C   0  0  0  0  0  0
    2.7062   -3.4045    1.2288 C   0  0  0  0  0  0
    2.9587   -4.0656    0.0105 C   0  0  0  0  0  0
    2.7081   -3.4096   -1.2108 C   0  0  0  0  0  0
    2.2061   -2.0933   -1.2140 C   0  0  0  0  0  0
    3.5720   -5.6784    0.0143 Cl  0  0  0  0  0  0
   -4.9550   -0.6982    0.0004 H   0  0  0  0  0  0
   -6.0488    1.5336   -0.0003 H   0  0  0  0  0  0
   -4.6737    3.5944   -0.0006 H   0  0  0  0  0  0
   -2.4934   -0.8762    0.0005 H   0  0  0  0  0  0
   -0.1188    4.4516   -0.0012 H   0  0  0  0  0  0
   -0.6209   -0.9102    0.0005 H   0  0  0  0  0  0
    1.7922    0.4905   -0.8983 H   0  0  0  0  0  0
    1.7918    0.4947    0.8979 H   0  0  0  0  0  0
    2.0099   -1.5868    2.1627 H   0  0  0  0  0  0
    2.8968   -3.9060    2.1664 H   0  0  0  0  0  0
    2.9001   -3.9147   -2.1461 H   0  0  0  0  0  0
    2.0132   -1.5956   -2.1532 H   0  0  0  0  0  0
  1  6  1  0  0  0
  1  2  2  0  0  0
  1 20  1  0  0  0
  2  3  1  0  0  0
  2 21  1  0  0  0
  3  4  2  0  0  0
  3 22  1  0  0  0
  4 10  1  0  0  0
  4  5  1  0  0  0
  5  6  2  0  0  0
  5  7  1  0  0  0
  6 23  1  0  0  0
  7  8  2  0  0  0
  7 11  1  0  0  0
  8  9  1  0  0  0
  9 10  2  0  0  0
  9 24  1  0  0  0
 11 12  1  0  0  0
 11 25  1  0  0  0
 12 13  1  0  0  0
 12 26  1  0  0  0
 12 27  1  0  0  0
 13 18  1  0  0  0
 13 14  2  0  0  0
 14 15  1  0  0  0
 14 28  1  0  0  0
 15 16  2  0  0  0
 15 29  1  0  0  0
 16 17  1  0  0  0
 16 19  1  0  0  0
 17 18  2  0  0  0
 17 30  1  0  0  0
 18 31  1  0  0  0
M  END
> <s_m_source_file>
SM04.smi

> <i_m_source_file_index>
1

> <i_lp_mmshare_version>
40011

> <i_f3d_flags>
0

> <s_lp_Force_Field>
OPLS_2005

> <r_lp_Energy>
11.4425172011095

> <b_lp_Chiralities_Consistent>
1

> <s_lp_Variant>
SM04-1

> <s_epik_input>
W2NIXTFbY0hdW2NIXVtjSF1jKGMxMiljKG5bY0hdbjIpW05IXVtDSDJdYzNbY0hdW2NIXWMoQ2wpW2NIXVtjSF0z

> <s_epik_cmdline>
J2VwaWtfYXBwJywgJy1pbWFlJywgJ1NNMDQuNS45Lm1hZScsICctb21hZScsICdTTTA0LmVwaWsuNS45Lm1hZScsICctcCcsICcwLjAwMDA0NTM5OTkyOTgnLCAnLXBoJywgJzUuOSc=

> <r_lp_tautomer_probability>
0.999978000241998

> <r_epik_Ionization_Penalty>
  0.2457

> <r_epik_Ionization_Penalty_Charging>
  0.0000

> <r_epik_Ionization_Penalty_Neutral>
  0.2457

> <r_epik_State_Penalty>
  0.3156

> <r_epik_Charging_Adjusted_Penalty>
0.315634605761939

> <i_epik_Tot_Q>
0

> <i_epik_Tot_abs_Q>
0

$$$$
SM04
                    3D
 Structure written by MMmdl.
 32 34  0  0  1  0            999 V2000
   -4.3524    0.1983    0.0002 C   0  0  0  0  0  0
   -4.9712    1.4611   -0.0002 C   0  0  0  0  0  0
   -4.1868    2.6301   -0.0004 C   0  0  0  0  0  0
   -2.7779    2.5580   -0.0005 C   0  0  0  0  0  0
   -2.1582    1.2760   -0.0002 C   0  0  0  0  0  0
   -2.9487    0.1031    0.0002 C   0  0  0  0  0  0
   -0.7387    1.2472   -0.0003 C   0  0  0  0  0  0
   -0.0220    2.3960   -0.0008 N   0  0  0  0  0  0
   -0.7022    3.5427   -0.0010 C   0  0  0  0  0  0
   -2.0282    3.6829   -0.0008 N   0  3  0  0  0  0
   -0.0439    0.0263    0.0004 N   0  0  0  0  0  0
    1.4107   -0.0153    0.0009 C   0  0  0  0  0  0
    1.9559   -1.4282    0.0043 C   0  0  0  0  0  0
    2.2042   -2.0883    1.2258 C   0  0  0  0  0  0
    2.7062   -3.4045    1.2288 C   0  0  0  0  0  0
    2.9587   -4.0656    0.0105 C   0  0  0  0  0  0
    2.7081   -3.4096   -1.2108 C   0  0  0  0  0  0
    2.2061   -2.0933   -1.2140 C   0  0  0  0  0  0
    3.5720   -5.6784    0.0143 Cl  0  0  0  0  0  0
   -4.9550   -0.6982    0.0004 H   0  0  0  0  0  0
   -6.0488    1.5336   -0.0003 H   0  0  0  0  0  0
   -4.6737    3.5944   -0.0006 H   0  0  0  0  0  0
   -2.4934   -0.8762    0.0005 H   0  0  0  0  0  0
   -0.1188    4.4516   -0.0012 H   0  0  0  0  0  0
   -0.6209   -0.9102    0.0005 H   0  0  0  0  0  0
    1.7922    0.4905   -0.8983 H   0  0  0  0  0  0
    1.7918    0.4947    0.8979 H   0  0  0  0  0  0
    2.0099   -1.5868    2.1627 H   0  0  0  0  0  0
    2.8968   -3.9060    2.1664 H   0  0  0  0  0  0
    2.9001   -3.9147   -2.1461 H   0  0  0  0  0  0
    2.0132   -1.5956   -2.1532 H   0  0  0  0  0  0
   -2.5159    4.6689   -0.0010 H   0  0  0  0  0  0
  1  6  1  0  0  0
  1  2  2  0  0  0
  1 20  1  0  0  0
  2  3  1  0  0  0
  2 21  1  0  0  0
  3  4  2  0  0  0
  3 22  1  0  0  0
  4 10  1  0  0  0
  4  5  1  0  0  0
  5  6  2  0  0  0
  5  7  1  0  0  0
  6 23  1  0  0  0
  7  8  2  0  0  0
  7 11  1  0  0  0
  8  9  1  0  0  0
  9 10  2  0  0  0
  9 24  1  0  0  0
 10 32  1  0  0  0
 11 12  1  0  0  0
 11 25  1  0  0  0
 12 13  1  0  0  0
 12 26  1  0  0  0
 12 27  1  0  0  0
 13 18  1  0  0  0
 13 14  2  0  0  0
 14 15  1  0  0  0
 14 28  1  0  0  0
 15 16  2  0  0  0
 15 29  1  0  0  0
 16 17  1  0  0  0
 16 19  1  0  0  0
 17 18  2  0  0  0
 17 30  1  0  0  0
 18 31  1  0  0  0
M  CHG  1  10   1
M  END
> <s_m_source_file>
SM04.smi

> <i_m_source_file_index>
1

> <i_lp_mmshare_version>
40011

> <i_f3d_flags>
0

> <s_lp_Force_Field>
OPLS_2005

> <r_lp_Energy>
11.4425172011095

> <b_lp_Chiralities_Consistent>
1

> <s_lp_Variant>
SM04-1

> <s_epik_input>
W2NIXTFbY0hdW2NIXVtjSF1jKGMxMiljKG5bY0hdbjIpW05IXVtDSDJdYzNbY0hdW2NIXWMoQ2wpW2NIXVtjSF0z

> <s_epik_cmdline>
J2VwaWtfYXBwJywgJy1pbWFlJywgJ1NNMDQuNS45Lm1hZScsICctb21hZScsICdTTTA0LmVwaWsuNS45Lm1hZScsICctcCcsICcwLjAwMDA0NTM5OTkyOTgnLCAnLXBoJywgJzUuOSc=

> <r_lp_tautomer_probability>
0.993507999998615

> <r_epik_Ionization_Penalty>
  0.6513

> <r_epik_Ionization_Penalty_Charging>
  0.6513

> <r_epik_Ionization_Penalty_Neutral>
  0.0000

> <r_epik_State_Penalty>
  0.5280

> <r_epik_Charging_Adjusted_Penalty>
1.17924764248582

> <i_epik_Tot_Q>
1

> <i_epik_Tot_abs_Q>
1

$$$$
SM04
                    3D
 Structure written by MMmdl.
 32 34  0  0  1  0            999 V2000
   -4.3524    0.1983    0.0002 C   0  0  0  0  0  0
   -4.9712    1.4611   -0.0002 C   0  0  0  0  0  0
   -4.1868    2.6301   -0.0004 C   0  0  0  0  0  0
   -2.7779    2.5580   -0.0005 C   0  0  0  0  0  0
   -2.1582    1.2760   -0.0002 C   0  0  0  0  0  0
   -2.9487    0.1031    0.0002 C   0  0  0  0  0  0
   -0.7387    1.2472   -0.0003 C   0  0  0  0  0  0
   -0.0220    2.3960   -0.0008 N   0  3  0  0  0  0
   -0.7022    3.5427   -0.0010 C   0  0  0  0  0  0
   -2.0282    3.6829   -0.0008 N   0  0  0  0  0  0
   -0.0439    0.0263    0.0004 N   0  0  0  0  0  0
    1.4107   -0.0153    0.0009 C   0  0  0  0  0  0
    1.9559   -1.4282    0.0043 C   0  0  0  0  0  0
    2.2042   -2.0883    1.2258 C   0  0  0  0  0  0
    2.7062   -3.4045    1.2288 C   0  0  0  0  0  0
    2.9587   -4.0656    0.0105 C   0  0  0  0  0  0
    2.7081   -3.4096   -1.2108 C   0  0  0  0  0  0
    2.2061   -2.0933   -1.2140 C   0  0  0  0  0  0
    3.5720   -5.6784    0.0143 Cl  0  0  0  0  0  0
   -4.9550   -0.6982    0.0004 H   0  0  0  0  0  0
   -6.0488    1.5336   -0.0003 H   0  0  0  0  0  0
   -4.6737    3.5944   -0.0006 H   0  0  0  0  0  0
   -2.4934   -0.8762    0.0005 H   0  0  0  0  0  0
   -0.1188    4.4516   -0.0012 H   0  0  0  0  0  0
   -0.6209   -0.9102    0.0005 H   0  0  0  0  0  0
    1.7922    0.4905   -0.8983 H   0  0  0  0  0  0
    1.7918    0.4947    0.8979 H   0  0  0  0  0  0
    2.0099   -1.5868    2.1627 H   0  0  0  0  0  0
    2.8968   -3.9060    2.1664 H   0  0  0  0  0  0
    2.9001   -3.9147   -2.1461 H   0  0  0  0  0  0
    2.0132   -1.5956   -2.1532 H   0  0  0  0  0  0
    1.0773    2.3584   -0.0010 H   0  0  0  0  0  0
  1  6  1  0  0  0
  1  2  2  0  0  0
  1 20  1  0  0  0
  2  3  1  0  0  0
  2 21  1  0  0  0
  3  4  2  0  0  0
  3 22  1  0  0  0
  4 10  1  0  0  0
  4  5  1  0  0  0
  5  6  2  0  0  0
  5  7  1  0  0  0
  6 23  1  0  0  0
  7  8  2  0  0  0
  7 11  1  0  0  0
  8  9  1  0  0  0
  8 32  1  0  0  0
  9 10  2  0  0  0
  9 24  1  0  0  0
 11 12  1  0  0  0
 11 25  1  0  0  0
 12 13  1  0  0  0
 12 26  1  0  0  0
 12 27  1  0  0  0
 13 18  1  0  0  0
 13 14  2  0  0  0
 14 15  1  0  0  0
 14 28  1  0  0  0
 15 16  2  0  0  0
 15 29  1  0  0  0
 16 17  1  0  0  0
 16 19  1  0  0  0
 17 18  2  0  0  0
 17 30  1  0  0  0
 18 31  1  0  0  0
M  CHG  1   8   1
M  END
> <s_m_source_file>
SM04.smi

> <i_m_source_file_index>
1

> <i_lp_mmshare_version>
40011

> <i_f3d_flags>
0

> <s_lp_Force_Field>
OPLS_2005

> <r_lp_Energy>
11.4425172011095

> <b_lp_Chiralities_Consistent>
1

> <s_lp_Variant>
SM04-1

> <s_epik_input>
W2NIXTFbY0hdW2NIXVtjSF1jKGMxMiljKG5bY0hdbjIpW05IXVtDSDJdYzNbY0hdW2NIXWMoQ2wpW2NIXVtjSF0z

> <s_epik_cmdline>
J2VwaWtfYXBwJywgJy1pbWFlJywgJ1NNMDQuNS45Lm1hZScsICctb21hZScsICdTTTA0LmVwaWsuNS45Lm1hZScsICctcCcsICcwLjAwMDA0NTM5OTkyOTgnLCAnLXBoJywgJzUuOSc=

> <r_lp_tautomer_probability>
0.00649199999999095

> <r_epik_Ionization_Penalty>
  2.7608

> <r_epik_Ionization_Penalty_Charging>
  2.7608

> <r_epik_Ionization_Penalty_Neutral>
  0.0000

> <r_epik_State_Penalty>
  3.4821

> <r_epik_Charging_Adjusted_Penalty>
6.24283036781744

> <i_epik_Tot_Q>
1

> <i_epik_Tot_abs_Q>
1

$$$$
