SM01
                    3D
 Structure written by MMmdl.
 26 28  0  0  1  0            999 V2000
   -0.6327    1.2468    0.0020 C   0  0  0  0  0  0
   -2.0398    1.2745   -0.0096 C   0  0  0  0  0  0
   -2.7355    0.0543   -0.0159 C   0  0  0  0  0  0
   -2.0949   -1.2045   -0.0108 C   0  0  0  0  0  0
   -0.6794   -1.2034   -0.0003 C   0  0  0  0  0  0
    0.0452    0.0092    0.0054 C   0  0  0  0  0  0
    1.4092   -0.0136    0.0143 O   0  5  0  0  0  0
   -3.1398   -2.1914   -0.0195 C   0  0  0  0  0  0
   -4.3349   -1.4891   -0.0152 C   0  0  0  0  0  0
   -4.0972   -0.1335   -0.0297 O   0  0  0  0  0  0
   -5.7620   -1.8907   -0.0489 C   0  0  0  0  0  0
   -6.6184   -1.0856   -0.4106 O   0  0  0  0  0  0
   -6.1137   -3.1223    0.3533 N   0  0  0  0  0  0
   -5.2557   -4.1957    0.8352 C   0  0  0  0  0  0
   -4.1472   -4.5529   -0.1647 C   0  0  0  0  0  0
   -2.8978   -3.6754   -0.0188 C   0  0  0  0  0  0
   -0.0756    2.1725    0.0077 H   0  0  0  0  0  0
   -2.5740    2.2129   -0.0129 H   0  0  0  0  0  0
   -0.1510   -2.1453    0.0032 H   0  0  0  0  0  0
   -7.2009   -3.2756    0.2855 H   0  0  0  0  0  0
   -4.7773   -3.8879    1.7767 H   0  0  0  0  0  0
   -5.8600   -5.0982    1.0090 H   0  0  0  0  0  0
   -3.8393   -5.5980   -0.0129 H   0  0  0  0  0  0
   -4.5242   -4.4271   -1.1904 H   0  0  0  0  0  0
   -2.2360   -3.9393   -0.8569 H   0  0  0  0  0  0
   -2.4237   -3.9691    0.9293 H   0  0  0  0  0  0
  1  6  1  0  0  0
  1  2  2  0  0  0
  1 17  1  0  0  0
  2  3  1  0  0  0
  2 18  1  0  0  0
  3 10  1  0  0  0
  3  4  2  0  0  0
  4  5  1  0  0  0
  4  8  1  0  0  0
  5  6  2  0  0  0
  5 19  1  0  0  0
  6  7  1  0  0  0
  8 16  1  0  0  0
  8  9  2  0  0  0
  9 10  1  0  0  0
  9 11  1  0  0  0
 11 12  2  0  0  0
 11 13  1  0  0  0
 13 14  1  0  0  0
 13 20  1  0  0  0
 14 15  1  0  0  0
 14 21  1  0  0  0
 14 22  1  0  0  0
 15 16  1  0  0  0
 15 23  1  0  0  0
 15 24  1  0  0  0
 16 25  1  0  0  0
 16 26  1  0  0  0
M  CHG  1   7  -1
M  END
> <s_m_source_file>
SM01.smi

> <i_m_source_file_index>
1

> <i_lp_mmshare_version>
40011

> <i_f3d_flags>
0

> <s_lp_Force_Field>
OPLS_2005

> <r_lp_Energy>
16.1365783833335

> <b_lp_Chiralities_Consistent>
1

> <s_lp_Variant>
SM01-1

> <s_epik_input>
W2NIXTFbY0hdYyhbT0hdKVtjSF1jKGMxMiljM2MobzIpQyg9TylbTkhdW0NIMl1bQ0gyXVtDSDJdMw==

> <s_epik_cmdline>
J2VwaWtfYXBwJywgJy1pbWFlJywgJ1NNMDEuMTEuMC5tYWUnLCAnLW9tYWUnLCAnU00wMS5lcGlrLjExLjAubWFlJywgJy1wJywgJzAuMDAwMDQ1Mzk5OTI5OCcsICctcGgnLCAnMTEuMCc=

> <r_epik_Ionization_Penalty>
  0.0108

> <r_epik_Ionization_Penalty_Charging>
  0.0077

> <r_epik_Ionization_Penalty_Neutral>
  0.0030

> <r_epik_State_Penalty>
  0.0078

> <r_epik_Charging_Adjusted_Penalty>
0.0155234184204118

> <i_epik_Tot_Q>
-1

> <i_epik_Tot_abs_Q>
1

$$$$
SM01
                    3D
 Structure written by MMmdl.
 27 29  0  0  1  0            999 V2000
   -0.6327    1.2468    0.0020 C   0  0  0  0  0  0
   -2.0398    1.2745   -0.0096 C   0  0  0  0  0  0
   -2.7355    0.0543   -0.0159 C   0  0  0  0  0  0
   -2.0949   -1.2045   -0.0108 C   0  0  0  0  0  0
   -0.6794   -1.2034   -0.0003 C   0  0  0  0  0  0
    0.0452    0.0092    0.0054 C   0  0  0  0  0  0
    1.4092   -0.0136    0.0143 O   0  0  0  0  0  0
   -3.1398   -2.1914   -0.0195 C   0  0  0  0  0  0
   -4.3349   -1.4891   -0.0152 C   0  0  0  0  0  0
   -4.0972   -0.1335   -0.0297 O   0  0  0  0  0  0
   -5.7620   -1.8907   -0.0489 C   0  0  0  0  0  0
   -6.6184   -1.0856   -0.4106 O   0  0  0  0  0  0
   -6.1137   -3.1223    0.3533 N   0  0  0  0  0  0
   -5.2557   -4.1957    0.8352 C   0  0  0  0  0  0
   -4.1472   -4.5529   -0.1647 C   0  0  0  0  0  0
   -2.8978   -3.6754   -0.0188 C   0  0  0  0  0  0
   -0.0756    2.1725    0.0077 H   0  0  0  0  0  0
   -2.5740    2.2129   -0.0129 H   0  0  0  0  0  0
   -0.1510   -2.1453    0.0032 H   0  0  0  0  0  0
    1.9751    0.9297    0.0187 H   0  0  0  0  0  0
   -7.2009   -3.2756    0.2855 H   0  0  0  0  0  0
   -4.7773   -3.8879    1.7767 H   0  0  0  0  0  0
   -5.8600   -5.0982    1.0090 H   0  0  0  0  0  0
   -3.8393   -5.5980   -0.0129 H   0  0  0  0  0  0
   -4.5242   -4.4271   -1.1904 H   0  0  0  0  0  0
   -2.2360   -3.9393   -0.8569 H   0  0  0  0  0  0
   -2.4237   -3.9691    0.9293 H   0  0  0  0  0  0
  1  6  1  0  0  0
  1  2  2  0  0  0
  1 17  1  0  0  0
  2  3  1  0  0  0
  2 18  1  0  0  0
  3 10  1  0  0  0
  3  4  2  0  0  0
  4  5  1  0  0  0
  4  8  1  0  0  0
  5  6  2  0  0  0
  5 19  1  0  0  0
  6  7  1  0  0  0
  7 20  1  0  0  0
  8 16  1  0  0  0
  8  9  2  0  0  0
  9 10  1  0  0  0
  9 11  1  0  0  0
 11 12  2  0  0  0
 11 13  1  0  0  0
 13 14  1  0  0  0
 13 21  1  0  0  0
 14 15  1  0  0  0
 14 22  1  0  0  0
 14 23  1  0  0  0
 15 16  1  0  0  0
 15 24  1  0  0  0
 15 25  1  0  0  0
 16 26  1  0  0  0
 16 27  1  0  0  0
M  END
> <s_m_source_file>
SM01.smi

> <i_m_source_file_index>
1

> <i_lp_mmshare_version>
40011

> <i_f3d_flags>
0

> <s_lp_Force_Field>
OPLS_2005

> <r_lp_Energy>
16.1365783833335

> <b_lp_Chiralities_Consistent>
1

> <s_lp_Variant>
SM01-1

> <s_epik_input>
W2NIXTFbY0hdYyhbT0hdKVtjSF1jKGMxMiljM2MobzIpQyg9TylbTkhdW0NIMl1bQ0gyXVtDSDJdMw==

> <s_epik_cmdline>
J2VwaWtfYXBwJywgJy1pbWFlJywgJ1NNMDEuMTEuMC5tYWUnLCAnLW9tYWUnLCAnU00wMS5lcGlrLjExLjAubWFlJywgJy1wJywgJzAuMDAwMDQ1Mzk5OTI5OCcsICctcGgnLCAnMTEuMCc=

> <r_epik_Ionization_Penalty>
  2.5808

> <r_epik_Ionization_Penalty_Charging>
  0.0000

> <r_epik_Ionization_Penalty_Neutral>
  2.5808

> <r_epik_State_Penalty>
  2.7737

> <r_epik_Charging_Adjusted_Penalty>
2.77372717191171

> <i_epik_Tot_Q>
0

> <i_epik_Tot_abs_Q>
0

$$$$
SM01
                    3D
 Structure written by MMmdl.
 25 27  0  0  1  0            999 V2000
   -0.6327    1.2468    0.0020 C   0  0  0  0  0  0
   -2.0398    1.2745   -0.0096 C   0  0  0  0  0  0
   -2.7355    0.0543   -0.0159 C   0  0  0  0  0  0
   -2.0949   -1.2045   -0.0108 C   0  0  0  0  0  0
   -0.6794   -1.2034   -0.0003 C   0  0  0  0  0  0
    0.0452    0.0092    0.0054 C   0  0  0  0  0  0
    1.4092   -0.0136    0.0143 O   0  5  0  0  0  0
   -3.1398   -2.1914   -0.0195 C   0  0  0  0  0  0
   -4.3349   -1.4891   -0.0152 C   0  0  0  0  0  0
   -4.0972   -0.1335   -0.0297 O   0  0  0  0  0  0
   -5.7620   -1.8907   -0.0489 C   0  0  0  0  0  0
   -6.6184   -1.0856   -0.4106 O   0  5  0  0  0  0
   -6.1137   -3.1223    0.3533 N   0  0  0  0  0  0
   -5.2557   -4.1957    0.8352 C   0  0  0  0  0  0
   -4.1472   -4.5529   -0.1647 C   0  0  0  0  0  0
   -2.8978   -3.6754   -0.0188 C   0  0  0  0  0  0
   -0.0756    2.1725    0.0077 H   0  0  0  0  0  0
   -2.5740    2.2129   -0.0129 H   0  0  0  0  0  0
   -0.1510   -2.1453    0.0032 H   0  0  0  0  0  0
   -4.7773   -3.8879    1.7767 H   0  0  0  0  0  0
   -5.8600   -5.0982    1.0090 H   0  0  0  0  0  0
   -3.8393   -5.5980   -0.0129 H   0  0  0  0  0  0
   -4.5242   -4.4271   -1.1904 H   0  0  0  0  0  0
   -2.2360   -3.9393   -0.8569 H   0  0  0  0  0  0
   -2.4237   -3.9691    0.9293 H   0  0  0  0  0  0
  1  6  1  0  0  0
  1  2  2  0  0  0
  1 17  1  0  0  0
  2  3  1  0  0  0
  2 18  1  0  0  0
  3 10  1  0  0  0
  3  4  2  0  0  0
  4  5  1  0  0  0
  4  8  1  0  0  0
  5  6  2  0  0  0
  5 19  1  0  0  0
  6  7  1  0  0  0
  8 16  1  0  0  0
  8  9  2  0  0  0
  9 10  1  0  0  0
  9 11  1  0  0  0
 11 12  1  0  0  0
 11 13  2  0  0  0
 13 14  1  0  0  0
 14 15  1  0  0  0
 14 20  1  0  0  0
 14 21  1  0  0  0
 15 16  1  0  0  0
 15 22  1  0  0  0
 15 23  1  0  0  0
 16 24  1  0  0  0
 16 25  1  0  0  0
M  CHG  2   7  -1  12  -1
M  END
> <s_m_source_file>
SM01.smi

> <i_m_source_file_index>
1

> <i_lp_mmshare_version>
40011

> <i_f3d_flags>
0

> <s_lp_Force_Field>
OPLS_2005

> <r_lp_Energy>
16.1365783833335

> <b_lp_Chiralities_Consistent>
1

> <s_lp_Variant>
SM01-1

> <s_epik_input>
W2NIXTFbY0hdYyhbT0hdKVtjSF1jKGMxMiljM2MobzIpQyg9TylbTkhdW0NIMl1bQ0gyXVtDSDJdMw==

> <s_epik_cmdline>
J2VwaWtfYXBwJywgJy1pbWFlJywgJ1NNMDEuMTEuMC5tYWUnLCAnLW9tYWUnLCAnU00wMS5lcGlrLjExLjAubWFlJywgJy1wJywgJzAuMDAwMDQ1Mzk5OTI5OCcsICctcGgnLCAnMTEuMCc=

> <r_epik_Ionization_Penalty>
  3.1443

> <r_epik_Ionization_Penalty_Charging>
  3.1443

> <r_epik_Ionization_Penalty_Neutral>
  0.0000

> <r_epik_State_Penalty>
  3.3164

> <r_epik_Charging_Adjusted_Penalty>
6.46074839799092

> <i_epik_Tot_Q>
-2

> <i_epik_Tot_abs_Q>
2

$$$$
SM01
                    3D
 Structure written by MMmdl.
 26 28  0  0  1  0            999 V2000
   -0.6327    1.2468    0.0020 C   0  0  0  0  0  0
   -2.0398    1.2745   -0.0096 C   0  0  0  0  0  0
   -2.7355    0.0543   -0.0159 C   0  0  0  0  0  0
   -2.0949   -1.2045   -0.0108 C   0  0  0  0  0  0
   -0.6794   -1.2034   -0.0003 C   0  0  0  0  0  0
    0.0452    0.0092    0.0054 C   0  0  0  0  0  0
    1.4092   -0.0136    0.0143 O   0  0  0  0  0  0
   -3.1398   -2.1914   -0.0195 C   0  0  0  0  0  0
   -4.3349   -1.4891   -0.0152 C   0  0  0  0  0  0
   -4.0972   -0.1335   -0.0297 O   0  0  0  0  0  0
   -5.7620   -1.8907   -0.0489 C   0  0  0  0  0  0
   -6.6184   -1.0856   -0.4106 O   0  5  0  0  0  0
   -6.1137   -3.1223    0.3533 N   0  0  0  0  0  0
   -5.2557   -4.1957    0.8352 C   0  0  0  0  0  0
   -4.1472   -4.5529   -0.1647 C   0  0  0  0  0  0
   -2.8978   -3.6754   -0.0188 C   0  0  0  0  0  0
   -0.0756    2.1725    0.0077 H   0  0  0  0  0  0
   -2.5740    2.2129   -0.0129 H   0  0  0  0  0  0
   -0.1510   -2.1453    0.0032 H   0  0  0  0  0  0
    1.9751    0.9297    0.0187 H   0  0  0  0  0  0
   -4.7773   -3.8879    1.7767 H   0  0  0  0  0  0
   -5.8600   -5.0982    1.0090 H   0  0  0  0  0  0
   -3.8393   -5.5980   -0.0129 H   0  0  0  0  0  0
   -4.5242   -4.4271   -1.1904 H   0  0  0  0  0  0
   -2.2360   -3.9393   -0.8569 H   0  0  0  0  0  0
   -2.4237   -3.9691    0.9293 H   0  0  0  0  0  0
  1  6  1  0  0  0
  1  2  2  0  0  0
  1 17  1  0  0  0
  2  3  1  0  0  0
  2 18  1  0  0  0
  3 10  1  0  0  0
  3  4  2  0  0  0
  4  5  1  0  0  0
  4  8  1  0  0  0
  5  6  2  0  0  0
  5 19  1  0  0  0
  6  7  1  0  0  0
  7 20  1  0  0  0
  8 16  1  0  0  0
  8  9  2  0  0  0
  9 10  1  0  0  0
  9 11  1  0  0  0
 11 12  1  0  0  0
 11 13  2  0  0  0
 13 14  1  0  0  0
 14 15  1  0  0  0
 14 21  1  0  0  0
 14 22  1  0  0  0
 15 16  1  0  0  0
 15 23  1  0  0  0
 15 24  1  0  0  0
 16 25  1  0  0  0
 16 26  1  0  0  0
M  CHG  1  12  -1
M  END
> <s_m_source_file>
SM01.smi

> <i_m_source_file_index>
1

> <i_lp_mmshare_version>
40011

> <i_f3d_flags>
0

> <s_lp_Force_Field>
OPLS_2005

> <r_lp_Energy>
16.1365783833335

> <b_lp_Chiralities_Consistent>
1

> <s_lp_Variant>
SM01-1

> <s_epik_input>
W2NIXTFbY0hdYyhbT0hdKVtjSF1jKGMxMiljM2MobzIpQyg9TylbTkhdW0NIMl1bQ0gyXVtDSDJdMw==

> <s_epik_cmdline>
J2VwaWtfYXBwJywgJy1pbWFlJywgJ1NNMDEuMTEuMC5tYWUnLCAnLW9tYWUnLCAnU00wMS5lcGlrLjExLjAubWFlJywgJy1wJywgJzAuMDAwMDQ1Mzk5OTI5OCcsICctcGgnLCAnMTEuMCc=

> <r_epik_Ionization_Penalty>
  4.8356

> <r_epik_Ionization_Penalty_Charging>
  2.6423

> <r_epik_Ionization_Penalty_Neutral>
  2.1934

> <r_epik_State_Penalty>
  5.6135

> <r_epik_Charging_Adjusted_Penalty>
8.25577251697426

> <i_epik_Tot_Q>
-1

> <i_epik_Tot_abs_Q>
1

$$$$
