SM23
                    3D
 Structure written by MMmdl.
 55 57  0  0  1  0            999 V2000
   -2.4297    8.7567   -0.4468 C   0  0  0  0  0  0
   -3.3392    7.6186    0.0230 C   0  0  0  0  0  0
   -2.6460    6.3862   -0.0916 O   0  0  0  0  0  0
   -3.2335    5.2411    0.3113 C   0  0  0  0  0  0
   -4.3679    5.1883    0.7914 O   0  0  0  0  0  0
   -2.3661    4.0431    0.1165 C   0  0  0  0  0  0
   -2.8402    2.7713    0.5103 C   0  0  0  0  0  0
   -2.0441    1.6229    0.3360 C   0  0  0  0  0  0
   -0.7544    1.7222   -0.2226 C   0  0  0  0  0  0
   -0.2827    2.9885   -0.6338 C   0  0  0  0  0  0
   -1.0772    4.1383   -0.4613 C   0  0  0  0  0  0
   -0.0104    0.5463   -0.3968 N   0  0  0  0  0  0
    1.3806    0.3785   -0.4344 C   0  0  0  0  0  0
    2.2922    1.3029    0.1263 C   0  0  0  0  0  0
    3.6598    0.9707    0.0337 C   0  0  0  0  0  0
    4.0775   -0.1732   -0.5509 N   0  0  0  0  0  0
    3.1340   -0.9875   -1.0289 C   0  0  0  0  0  0
    1.8148   -0.7703   -0.9963 N   0  0  0  0  0  0
    3.5982   -2.1453   -1.6273 N   0  0  0  0  0  0
    2.9746   -3.2005   -2.3066 C   0  0  0  0  0  0
    3.6249   -3.7690   -3.4195 C   0  0  0  0  0  0
    3.0361   -4.8365   -4.1247 C   0  0  0  0  0  0
    1.7840   -5.3606   -3.7217 C   0  0  0  0  0  0
    1.1418   -4.7949   -2.5969 C   0  0  0  0  0  0
    1.7324   -3.7282   -1.8928 C   0  0  0  0  0  0
    1.1303   -6.4888   -4.4461 C   0  0  0  0  0  0
    0.0313   -6.9512   -4.1329 O   0  0  0  0  0  0
    1.8675   -6.9500   -5.4767 O   0  0  0  0  0  0
    1.3859   -8.0247   -6.2676 C   0  0  0  0  0  0
    2.4346   -8.3892   -7.3208 C   0  0  0  0  0  0
    4.7334    1.8825    0.5887 C   0  0  0  0  0  0
   -2.9649    9.7137   -0.3590 H   0  0  0  0  0  0
   -2.1463    8.5900   -1.4965 H   0  0  0  0  0  0
   -1.5245    8.7842    0.1775 H   0  0  0  0  0  0
   -3.6226    7.7853    1.0727 H   0  0  0  0  0  0
   -4.2444    7.5912   -0.6013 H   0  0  0  0  0  0
   -3.8216    2.6614    0.9488 H   0  0  0  0  0  0
   -2.4295    0.6606    0.6406 H   0  0  0  0  0  0
    0.6849    3.0920   -1.1016 H   0  0  0  0  0  0
   -0.6788    5.0874   -0.7883 H   0  0  0  0  0  0
   -0.5260   -0.4164   -0.5283 H   0  0  0  0  0  0
    1.9715    2.2097    0.6166 H   0  0  0  0  0  0
    4.6739   -2.3750   -1.6201 H   0  0  0  0  0  0
    4.5810   -3.3836   -3.7431 H   0  0  0  0  0  0
    3.5644   -5.2398   -4.9761 H   0  0  0  0  0  0
    0.1890   -5.1756   -2.2580 H   0  0  0  0  0  0
    1.2235   -3.3274   -1.0290 H   0  0  0  0  0  0
    1.1928   -8.8957   -5.6242 H   0  0  0  0  0  0
    0.4530   -7.7234   -6.7665 H   0  0  0  0  0  0
    2.0629   -9.2225   -7.9353 H   0  0  0  0  0  0
    3.3672   -8.6898   -6.8209 H   0  0  0  0  0  0
    2.6274   -7.5174   -7.9633 H   0  0  0  0  0  0
    4.2644    2.7722    1.0343 H   0  0  0  0  0  0
    5.4079    2.1914   -0.2234 H   0  0  0  0  0  0
    5.3078    1.3464    1.3586 H   0  0  0  0  0  0
  1  2  1  0  0  0
  1 32  1  0  0  0
  1 33  1  0  0  0
  1 34  1  0  0  0
  2  3  1  0  0  0
  2 35  1  0  0  0
  2 36  1  0  0  0
  3  4  1  0  0  0
  4  5  2  0  0  0
  4  6  1  0  0  0
  6 11  1  0  0  0
  6  7  2  0  0  0
  7  8  1  0  0  0
  7 37  1  0  0  0
  8  9  2  0  0  0
  8 38  1  0  0  0
  9 10  1  0  0  0
  9 12  1  0  0  0
 10 11  2  0  0  0
 10 39  1  0  0  0
 11 40  1  0  0  0
 12 13  1  0  0  0
 12 41  1  0  0  0
 13 18  1  0  0  0
 13 14  2  0  0  0
 14 15  1  0  0  0
 14 42  1  0  0  0
 15 16  2  0  0  0
 15 31  1  0  0  0
 16 17  1  0  0  0
 17 18  2  0  0  0
 17 19  1  0  0  0
 19 20  1  0  0  0
 19 43  1  0  0  0
 20 25  1  0  0  0
 20 21  2  0  0  0
 21 22  1  0  0  0
 21 44  1  0  0  0
 22 23  2  0  0  0
 22 45  1  0  0  0
 23 24  1  0  0  0
 23 26  1  0  0  0
 24 25  2  0  0  0
 24 46  1  0  0  0
 25 47  1  0  0  0
 26 27  2  0  0  0
 26 28  1  0  0  0
 28 29  1  0  0  0
 29 30  1  0  0  0
 29 48  1  0  0  0
 29 49  1  0  0  0
 30 50  1  0  0  0
 30 51  1  0  0  0
 30 52  1  0  0  0
 31 53  1  0  0  0
 31 54  1  0  0  0
 31 55  1  0  0  0
M  END
> <s_m_source_file>
SM23.smi

> <i_m_source_file_index>
1

> <i_lp_mmshare_version>
40011

> <i_f3d_flags>
0

> <s_lp_Force_Field>
OPLS_2005

> <r_lp_Energy>
16.8639595093671

> <b_lp_Chiralities_Consistent>
1

> <s_lp_Variant>
SM23-1

> <s_epik_input>
W0NIM11bQ0gyXU9DKD1PKWMxW2NIXVtjSF1jKFtjSF1bY0hdMSlbTkhdYzJbY0hdYyhbQ0gzXSluYyhuMilbTkhdYzNbY0hdW2NIXWMoW2NIXVtjSF0zKUMoPU8pT1tDSDJdW0NIM10=

> <s_epik_cmdline>
J2VwaWtfYXBwJywgJy1pbWFlJywgJ1NNMjMuNi4wLm1hZScsICctb21hZScsICdTTTIzLmVwaWsuNi4wLm1hZScsICctcCcsICcwLjAwMDA0NTM5OTkyOTgnLCAnLXBoJywgJzYuMCc=

> <r_lp_tautomer_probability>
0.999999624730965

> <r_epik_Ionization_Penalty>
  0.4227

> <r_epik_Ionization_Penalty_Charging>
  0.0000

> <r_epik_Ionization_Penalty_Neutral>
  0.4227

> <r_epik_State_Penalty>
  0.0191

> <r_epik_Charging_Adjusted_Penalty>
0.019098590939869

> <i_epik_Tot_Q>
0

> <i_epik_Tot_abs_Q>
0

> <s_epik_Chemistry_Notes>
This compound has an ester and may undergo hydrolysis at high or low pH.

$$$$
SM23
                    3D
 Structure written by MMmdl.
 56 58  0  0  1  0            999 V2000
   -2.4297    8.7567   -0.4468 C   0  0  0  0  0  0
   -3.3392    7.6186    0.0230 C   0  0  0  0  0  0
   -2.6460    6.3862   -0.0916 O   0  0  0  0  0  0
   -3.2335    5.2411    0.3113 C   0  0  0  0  0  0
   -4.3679    5.1883    0.7914 O   0  0  0  0  0  0
   -2.3661    4.0431    0.1165 C   0  0  0  0  0  0
   -2.8402    2.7713    0.5103 C   0  0  0  0  0  0
   -2.0441    1.6229    0.3360 C   0  0  0  0  0  0
   -0.7544    1.7222   -0.2226 C   0  0  0  0  0  0
   -0.2827    2.9885   -0.6338 C   0  0  0  0  0  0
   -1.0772    4.1383   -0.4613 C   0  0  0  0  0  0
   -0.0104    0.5463   -0.3968 N   0  0  0  0  0  0
    1.3806    0.3785   -0.4344 C   0  0  0  0  0  0
    2.2922    1.3029    0.1263 C   0  0  0  0  0  0
    3.6598    0.9707    0.0337 C   0  0  0  0  0  0
    4.0775   -0.1732   -0.5509 N   0  3  0  0  0  0
    3.1340   -0.9875   -1.0289 C   0  0  0  0  0  0
    1.8148   -0.7703   -0.9963 N   0  0  0  0  0  0
    3.5982   -2.1453   -1.6273 N   0  0  0  0  0  0
    2.9746   -3.2005   -2.3066 C   0  0  0  0  0  0
    3.6249   -3.7690   -3.4195 C   0  0  0  0  0  0
    3.0361   -4.8365   -4.1247 C   0  0  0  0  0  0
    1.7840   -5.3606   -3.7217 C   0  0  0  0  0  0
    1.1418   -4.7949   -2.5969 C   0  0  0  0  0  0
    1.7324   -3.7282   -1.8928 C   0  0  0  0  0  0
    1.1303   -6.4888   -4.4461 C   0  0  0  0  0  0
    0.0313   -6.9512   -4.1329 O   0  0  0  0  0  0
    1.8675   -6.9500   -5.4767 O   0  0  0  0  0  0
    1.3859   -8.0247   -6.2676 C   0  0  0  0  0  0
    2.4346   -8.3892   -7.3208 C   0  0  0  0  0  0
    4.7334    1.8825    0.5887 C   0  0  0  0  0  0
   -2.9649    9.7137   -0.3590 H   0  0  0  0  0  0
   -2.1463    8.5900   -1.4965 H   0  0  0  0  0  0
   -1.5245    8.7842    0.1775 H   0  0  0  0  0  0
   -3.6226    7.7853    1.0727 H   0  0  0  0  0  0
   -4.2444    7.5912   -0.6013 H   0  0  0  0  0  0
   -3.8216    2.6614    0.9488 H   0  0  0  0  0  0
   -2.4295    0.6606    0.6406 H   0  0  0  0  0  0
    0.6849    3.0920   -1.1016 H   0  0  0  0  0  0
   -0.6788    5.0874   -0.7883 H   0  0  0  0  0  0
   -0.5260   -0.4164   -0.5283 H   0  0  0  0  0  0
    1.9715    2.2097    0.6166 H   0  0  0  0  0  0
    4.6739   -2.3750   -1.6201 H   0  0  0  0  0  0
    4.5810   -3.3836   -3.7431 H   0  0  0  0  0  0
    3.5644   -5.2398   -4.9761 H   0  0  0  0  0  0
    0.1890   -5.1756   -2.2580 H   0  0  0  0  0  0
    1.2235   -3.3274   -1.0290 H   0  0  0  0  0  0
    1.1928   -8.8957   -5.6242 H   0  0  0  0  0  0
    0.4530   -7.7234   -6.7665 H   0  0  0  0  0  0
    2.0629   -9.2225   -7.9353 H   0  0  0  0  0  0
    3.3672   -8.6898   -6.8209 H   0  0  0  0  0  0
    2.6274   -7.5174   -7.9633 H   0  0  0  0  0  0
    4.2644    2.7722    1.0343 H   0  0  0  0  0  0
    5.4079    2.1914   -0.2234 H   0  0  0  0  0  0
    5.3078    1.3464    1.3586 H   0  0  0  0  0  0
    5.1526   -0.3969   -0.6157 H   0  0  0  0  0  0
  1  2  1  0  0  0
  1 32  1  0  0  0
  1 33  1  0  0  0
  1 34  1  0  0  0
  2  3  1  0  0  0
  2 35  1  0  0  0
  2 36  1  0  0  0
  3  4  1  0  0  0
  4  5  2  0  0  0
  4  6  1  0  0  0
  6 11  1  0  0  0
  6  7  2  0  0  0
  7  8  1  0  0  0
  7 37  1  0  0  0
  8  9  2  0  0  0
  8 38  1  0  0  0
  9 10  1  0  0  0
  9 12  1  0  0  0
 10 11  2  0  0  0
 10 39  1  0  0  0
 11 40  1  0  0  0
 12 13  1  0  0  0
 12 41  1  0  0  0
 13 18  1  0  0  0
 13 14  2  0  0  0
 14 15  1  0  0  0
 14 42  1  0  0  0
 15 16  2  0  0  0
 15 31  1  0  0  0
 16 17  1  0  0  0
 16 56  1  0  0  0
 17 18  2  0  0  0
 17 19  1  0  0  0
 19 20  1  0  0  0
 19 43  1  0  0  0
 20 25  1  0  0  0
 20 21  2  0  0  0
 21 22  1  0  0  0
 21 44  1  0  0  0
 22 23  2  0  0  0
 22 45  1  0  0  0
 23 24  1  0  0  0
 23 26  1  0  0  0
 24 25  2  0  0  0
 24 46  1  0  0  0
 25 47  1  0  0  0
 26 27  2  0  0  0
 26 28  1  0  0  0
 28 29  1  0  0  0
 29 30  1  0  0  0
 29 48  1  0  0  0
 29 49  1  0  0  0
 30 50  1  0  0  0
 30 51  1  0  0  0
 30 52  1  0  0  0
 31 53  1  0  0  0
 31 54  1  0  0  0
 31 55  1  0  0  0
M  CHG  1  16   1
M  END
> <s_m_source_file>
SM23.smi

> <i_m_source_file_index>
1

> <i_lp_mmshare_version>
40011

> <i_f3d_flags>
0

> <s_lp_Force_Field>
OPLS_2005

> <r_lp_Energy>
16.8639595093671

> <b_lp_Chiralities_Consistent>
1

> <s_lp_Variant>
SM23-1

> <s_epik_input>
W0NIM11bQ0gyXU9DKD1PKWMxW2NIXVtjSF1jKFtjSF1bY0hdMSlbTkhdYzJbY0hdYyhbQ0gzXSluYyhuMilbTkhdYzNbY0hdW2NIXWMoW2NIXVtjSF0zKUMoPU8pT1tDSDJdW0NIM10=

> <s_epik_cmdline>
J2VwaWtfYXBwJywgJy1pbWFlJywgJ1NNMjMuNi4wLm1hZScsICctb21hZScsICdTTTIzLmVwaWsuNi4wLm1hZScsICctcCcsICcwLjAwMDA0NTM5OTkyOTgnLCAnLXBoJywgJzYuMCc=

> <r_lp_tautomer_probability>
0.575010577011949

> <r_epik_Ionization_Penalty>
  0.4222

> <r_epik_Ionization_Penalty_Charging>
  0.4203

> <r_epik_Ionization_Penalty_Neutral>
  0.0019

> <r_epik_State_Penalty>
  2.0448

> <r_epik_Charging_Adjusted_Penalty>
2.4650665428253

> <i_epik_Tot_Q>
1

> <i_epik_Tot_abs_Q>
1

> <s_epik_Chemistry_Notes>
This compound has an ester and may undergo hydrolysis at high or low pH.

$$$$
