SM18
                    3D
 Structure written by MMmdl.
 46 49  0  0  1  0            999 V2000
   -6.8393   -1.3580    1.6101 C   0  0  0  0  0  0
   -5.9073   -1.8577    2.5393 C   0  0  0  0  0  0
   -4.5577   -2.0194    2.1703 C   0  0  0  0  0  0
   -4.1274   -1.6827    0.8702 C   0  0  0  0  0  0
   -5.0720   -1.1798   -0.0641 C   0  0  0  0  0  0
   -6.4241   -1.0189    0.3082 C   0  0  0  0  0  0
   -4.5897   -0.8292   -1.4453 C   0  0  0  0  0  0
   -5.3470   -0.3882   -2.3084 O   0  0  0  0  0  0
   -3.2765   -1.0371   -1.6612 N   0  0  0  0  0  0
   -2.4151   -1.5358   -0.6758 C   0  0  0  0  0  0
   -2.7719   -1.8538    0.5321 N   0  0  0  0  0  0
   -0.9895   -1.6683   -1.1791 C   0  0  0  0  0  0
   -0.2964   -0.3043   -1.3746 C   0  0  0  0  0  0
    1.1376   -0.4359   -1.8960 C   0  0  0  0  0  0
    1.4036   -1.2858   -2.7463 O   0  0  0  0  0  0
    2.0309    0.4236   -1.3709 N   0  0  0  0  0  0
    3.4099    0.5576   -1.6805 C   0  0  0  0  0  0
    4.2389    1.4166   -1.0778 N   0  0  0  0  0  0
    5.5421    1.3196   -1.5707 C   0  0  0  0  0  0
    5.6944    0.3793   -2.5611 C   0  0  0  0  0  0
    4.1830   -0.4185   -2.9193 S   0  0  0  0  0  0
    6.9461    0.0290   -3.2960 C   0  0  0  0  0  0
    7.2550    1.0266   -4.3959 C   0  0  0  0  0  0
    8.1457    2.0943   -4.1567 C   0  0  0  0  0  0
    8.4270    3.0229   -5.1776 C   0  0  0  0  0  0
    7.8183    2.8884   -6.4406 C   0  0  0  0  0  0
    6.9275    1.8241   -6.6825 C   0  0  0  0  0  0
    6.6465    0.8949   -5.6619 C   0  0  0  0  0  0
    6.3401    1.6930   -7.8956 F   0  0  0  0  0  0
    8.0900    3.7825   -7.4208 F   0  0  0  0  0  0
   -2.0637   -2.2428    1.2785 H   0  0  0  0  0  0
   -7.7967   -1.2441    1.8752 H   0  0  0  0  0  0
   -6.2054   -2.0982    3.4631 H   0  0  0  0  0  0
   -3.8975   -2.3746    2.8321 H   0  0  0  0  0  0
   -7.0868   -0.6645   -0.3515 H   0  0  0  0  0  0
   -1.0202   -2.2049   -2.1388 H   0  0  0  0  0  0
   -0.4274   -2.2633   -0.4442 H   0  0  0  0  0  0
   -0.8643    0.2947   -2.1016 H   0  0  0  0  0  0
   -0.2563    0.2279   -0.4127 H   0  0  0  0  0  0
    6.3281    1.8587   -1.2679 H   0  0  0  0  0  0
    6.8193   -0.9721   -3.7340 H   0  0  0  0  0  0
    7.7756    0.0108   -2.5738 H   0  0  0  0  0  0
    8.6139    2.2054   -3.1896 H   0  0  0  0  0  0
    9.1095    3.8390   -4.9914 H   0  0  0  0  0  0
    5.9610    0.0819   -5.8520 H   0  0  0  0  0  0
    4.0033    2.1415   -0.2847 H   0  0  0  0  0  0
  1  6  2  0  0  0
  1 32  1  0  0  0
  1  2  1  0  0  0
  2 33  1  0  0  0
  2  3  2  0  0  0
  3 34  1  0  0  0
  3  4  1  0  0  0
  4  5  2  0  0  0
  4 11  1  0  0  0
  5  7  1  0  0  0
  5  6  1  0  0  0
  6 35  1  0  0  0
  7  8  2  0  0  0
  7  9  1  0  0  0
  9 10  2  0  0  0
 10 11  1  0  0  0
 10 12  1  0  0  0
 11 31  1  0  0  0
 12 13  1  0  0  0
 12 36  1  0  0  0
 12 37  1  0  0  0
 13 38  1  0  0  0
 13 39  1  0  0  0
 13 14  1  0  0  0
 14 16  1  0  0  0
 14 15  2  0  0  0
 16 17  2  0  0  0
 17 21  1  0  0  0
 17 18  1  0  0  0
 18 19  1  0  0  0
 18 46  1  0  0  0
 19 40  1  0  0  0
 19 20  2  0  0  0
 20 22  1  0  0  0
 20 21  1  0  0  0
 22 23  1  0  0  0
 22 41  1  0  0  0
 22 42  1  0  0  0
 23 28  1  0  0  0
 23 24  2  0  0  0
 24 25  1  0  0  0
 24 43  1  0  0  0
 25 26  2  0  0  0
 25 44  1  0  0  0
 26 27  1  0  0  0
 26 30  1  0  0  0
 27 28  2  0  0  0
 27 29  1  0  0  0
 28 45  1  0  0  0
M  END
> <s_m_source_file>
SM18.smi

> <i_m_source_file_index>
1

> <i_lp_mmshare_version>
40011

> <i_f3d_flags>
0

> <s_lp_Force_Field>
OPLS_2005

> <r_lp_Energy>
17.4490160392642

> <b_lp_Chiralities_Consistent>
1

> <s_lp_Variant>
SM18-1

> <s_epik_input>
W2NIXTFbY0hdW2NIXVtjSF1jKGMxMiljKD1PKVtuSF1jKG4yKVtDSDJdW0NIMl1DKD1PKVtOSF1jM25bY0hdYyhzMylbQ0gyXWM0W2NIXVtjSF1jKEYpYyhGKVtjSF00

> <s_epik_cmdline>
J2VwaWtfYXBwJywgJy1pbWFlJywgJ1NNMTguMi4wLm1hZScsICctb21hZScsICdTTTE4LmVwaWsuMi4wLm1hZScsICctcCcsICcwLjAwMDA0NTM5OTkyOTgnLCAnLXBoJywgJzIuMCc=

> <r_lp_tautomer_probability>
5.79965010901507e-05

> <r_epik_Ionization_Penalty>
  5.4206

> <r_epik_Ionization_Penalty_Charging>
  1.8321

> <r_epik_Ionization_Penalty_Neutral>
  3.5884

> <r_epik_State_Penalty>
  0.0000

> <r_epik_Charging_Adjusted_Penalty>
1.83213157122872

> <i_epik_Tot_Q>
0

> <i_epik_Tot_abs_Q>
0

$$$$
