SM18
                    3D
 Structure written by MMmdl.
 46 49  0  0  1  0            999 V2000
   -7.4271    0.4245   -0.2365 C   0  0  0  0  0  0
   -7.0857    1.0479   -1.4517 C   0  0  0  0  0  0
   -5.7619    1.4694   -1.6830 C   0  0  0  0  0  0
   -4.7676    1.2710   -0.7027 C   0  0  0  0  0  0
   -5.1174    0.6424    0.5223 C   0  0  0  0  0  0
   -6.4451    0.2211    0.7516 C   0  0  0  0  0  0
   -4.0401    0.4433    1.5532 C   0  0  0  0  0  0
   -4.2653   -0.0932    2.6369 O   0  0  0  0  0  0
   -2.8219    0.8972    1.2007 N   0  0  0  0  0  0
   -2.5666    1.5044   -0.0354 C   0  0  0  0  0  0
   -3.4533    1.7016   -0.9641 N   0  0  0  0  0  0
   -1.1132    1.9166   -0.1786 C   0  0  0  0  0  0
   -0.1654    0.7120   -0.3515 C   0  0  0  0  0  0
    1.3034    1.1256   -0.4818 C   0  0  0  0  0  0
    1.7438    2.0442    0.2098 O   0  0  0  0  0  0
    2.0309    0.4236   -1.3709 N   0  0  0  0  0  0
    3.4099    0.5576   -1.6805 C   0  0  0  0  0  0
    4.2389    1.4166   -1.0778 N   0  0  0  0  0  0
    5.5421    1.3196   -1.5707 C   0  0  0  0  0  0
    5.6944    0.3793   -2.5611 C   0  0  0  0  0  0
    4.1830   -0.4185   -2.9193 S   0  0  0  0  0  0
    6.9461    0.0290   -3.2960 C   0  0  0  0  0  0
    7.2550    1.0266   -4.3959 C   0  0  0  0  0  0
    8.1457    2.0943   -4.1567 C   0  0  0  0  0  0
    8.4270    3.0229   -5.1776 C   0  0  0  0  0  0
    7.8183    2.8884   -6.4406 C   0  0  0  0  0  0
    6.9275    1.8241   -6.6825 C   0  0  0  0  0  0
    6.6465    0.8949   -5.6619 C   0  0  0  0  0  0
    6.3401    1.6930   -7.8956 F   0  0  0  0  0  0
    8.0900    3.7825   -7.4208 F   0  0  0  0  0  0
   -3.2127    2.1828   -1.9235 H   0  0  0  0  0  0
   -8.3678    0.1261   -0.0754 H   0  0  0  0  0  0
   -7.7856    1.1915   -2.1514 H   0  0  0  0  0  0
   -5.5218    1.9121   -2.5469 H   0  0  0  0  0  0
   -6.6884   -0.2213    1.6148 H   0  0  0  0  0  0
   -0.8321    2.4775    0.7250 H   0  0  0  0  0  0
   -1.0350    2.5738   -1.0572 H   0  0  0  0  0  0
   -0.2513    0.0495    0.5224 H   0  0  0  0  0  0
   -0.4399    0.1571   -1.2607 H   0  0  0  0  0  0
    6.3281    1.8587   -1.2679 H   0  0  0  0  0  0
    6.8193   -0.9721   -3.7340 H   0  0  0  0  0  0
    7.7756    0.0108   -2.5738 H   0  0  0  0  0  0
    8.6139    2.2054   -3.1896 H   0  0  0  0  0  0
    9.1095    3.8390   -4.9914 H   0  0  0  0  0  0
    5.9610    0.0819   -5.8520 H   0  0  0  0  0  0
    4.0033    2.1415   -0.2847 H   0  0  0  0  0  0
  1  6  2  0  0  0
  1 32  1  0  0  0
  1  2  1  0  0  0
  2 33  1  0  0  0
  2  3  2  0  0  0
  3 34  1  0  0  0
  3  4  1  0  0  0
  4  5  2  0  0  0
  4 11  1  0  0  0
  5  7  1  0  0  0
  5  6  1  0  0  0
  6 35  1  0  0  0
  7  8  2  0  0  0
  7  9  1  0  0  0
  9 10  2  0  0  0
 10 11  1  0  0  0
 10 12  1  0  0  0
 11 31  1  0  0  0
 12 13  1  0  0  0
 12 36  1  0  0  0
 12 37  1  0  0  0
 13 38  1  0  0  0
 13 39  1  0  0  0
 13 14  1  0  0  0
 14 16  1  0  0  0
 14 15  2  0  0  0
 16 17  2  0  0  0
 17 21  1  0  0  0
 17 18  1  0  0  0
 18 19  1  0  0  0
 18 46  1  0  0  0
 19 40  1  0  0  0
 19 20  2  0  0  0
 20 22  1  0  0  0
 20 21  1  0  0  0
 22 23  1  0  0  0
 22 41  1  0  0  0
 22 42  1  0  0  0
 23 28  1  0  0  0
 23 24  2  0  0  0
 24 25  1  0  0  0
 24 43  1  0  0  0
 25 26  2  0  0  0
 25 44  1  0  0  0
 26 27  1  0  0  0
 26 30  1  0  0  0
 27 28  2  0  0  0
 27 29  1  0  0  0
 28 45  1  0  0  0
M  END
> <s_m_source_file>
SM18.smi

> <i_m_source_file_index>
1

> <i_lp_mmshare_version>
40011

> <i_f3d_flags>
0

> <s_lp_Force_Field>
OPLS_2005

> <r_lp_Energy>
17.4490160392642

> <b_lp_Chiralities_Consistent>
1

> <s_lp_Variant>
SM18-1

> <s_epik_input>
W2NIXTFbY0hdW2NIXVtjSF1jKGMxMiljKD1PKVtuSF1jKG4yKVtDSDJdW0NIMl1DKD1PKVtOSF1jM25bY0hdYyhzMylbQ0gyXWM0W2NIXVtjSF1jKEYpYyhGKVtjSF00

> <s_epik_cmdline>
J2VwaWtfYXBwJywgJy1pbWFlJywgJ1NNMTguMi45Lm1hZScsICctb21hZScsICdTTTE4LmVwaWsuMi45Lm1hZScsICctcCcsICcwLjAwMDA0NTM5OTkyOTgnLCAnLXBoJywgJzIuOSc=

> <r_lp_tautomer_probability>
1

> <r_epik_Ionization_Penalty>
  2.4594

> <r_epik_Ionization_Penalty_Charging>
  0.7667

> <r_epik_Ionization_Penalty_Neutral>
  1.6927

> <r_epik_State_Penalty>
 -0.0000

> <r_epik_Charging_Adjusted_Penalty>
0.766657345045645

> <i_epik_Tot_Q>
0

> <i_epik_Tot_abs_Q>
0

$$$$
