SM18
                    3D
 Structure written by MMmdl.
 46 49  0  0  1  0            999 V2000
   -7.3988    0.3607   -0.0743 C   0  0  0  0  0  0
   -7.0782    0.9838   -1.2953 C   0  0  0  0  0  0
   -5.7573    1.3998   -1.5516 C   0  0  0  0  0  0
   -4.7452    1.1963   -0.5909 C   0  0  0  0  0  0
   -5.0740    0.5680    0.6401 C   0  0  0  0  0  0
   -6.3988    0.1521    0.8945 C   0  0  0  0  0  0
   -3.9779    0.3633    1.6499 C   0  0  0  0  0  0
   -4.1845   -0.1732    2.7373 O   0  0  0  0  0  0
   -2.7648    0.8124    1.2744 N   0  0  0  0  0  0
   -2.5308    1.4197    0.0342 C   0  0  0  0  0  0
   -3.4343    1.6215   -0.8771 N   0  0  0  0  0  0
   -1.0786    1.8259   -0.1366 C   0  0  0  0  0  0
   -0.1395    0.6175   -0.3288 C   0  0  0  0  0  0
    1.3283    1.0250   -0.4870 C   0  0  0  0  0  0
    1.7858    1.9410    0.1969 O   0  0  0  0  0  0
    2.0355    0.3207   -1.3905 N   0  0  0  0  0  0
    3.4088    0.4491   -1.7265 C   0  0  0  0  0  0
    4.2506    1.3117   -1.1467 N   0  0  0  0  0  0
    5.5486    1.1939   -1.6486 C   0  0  0  0  0  0
    5.6800    0.2476   -2.6363 C   0  0  0  0  0  0
    4.1573   -0.5392   -2.9706 S   0  0  0  0  0  0
    6.9209   -0.1238   -3.3789 C   0  0  0  0  0  0
    7.2362    0.8650   -4.4851 C   0  0  0  0  0  0
    8.1440    1.9205   -4.2566 C   0  0  0  0  0  0
    8.4313    2.8410   -5.2833 C   0  0  0  0  0  0
    7.8114    2.7103   -6.5413 C   0  0  0  0  0  0
    6.9035    1.6582   -6.7724 C   0  0  0  0  0  0
    6.6166    0.7372   -5.7461 C   0  0  0  0  0  0
    6.3054    1.5310   -7.9807 F   0  0  0  0  0  0
    8.0889    3.5966   -7.5270 F   0  0  0  0  0  0
   -1.9384    0.6855    1.9893 H   0  0  0  0  0  0
   -8.3375    0.0661    0.1046 H   0  0  0  0  0  0
   -7.7908    1.1308   -1.9813 H   0  0  0  0  0  0
   -5.5321    1.8427   -2.4195 H   0  0  0  0  0  0
   -6.6274   -0.2901    1.7618 H   0  0  0  0  0  0
   -0.7779    2.3847    0.7619 H   0  0  0  0  0  0
   -1.0145    2.4836   -1.0160 H   0  0  0  0  0  0
   -0.2114   -0.0455    0.5460 H   0  0  0  0  0  0
   -0.4338    0.0646   -1.2330 H   0  0  0  0  0  0
    6.3445    1.7227   -1.3538 H   0  0  0  0  0  0
    6.7764   -1.1246   -3.8120 H   0  0  0  0  0  0
    7.7554   -0.1512   -2.6628 H   0  0  0  0  0  0
    8.6209    2.0286   -3.2935 H   0  0  0  0  0  0
    9.1269    3.6477   -5.1054 H   0  0  0  0  0  0
    5.9179   -0.0664   -5.9279 H   0  0  0  0  0  0
    1.4134   -0.4320   -1.8969 H   0  0  0  0  0  0
  1  6  2  0  0  0
  1 32  1  0  0  0
  1  2  1  0  0  0
  2 33  1  0  0  0
  2  3  2  0  0  0
  3 34  1  0  0  0
  3  4  1  0  0  0
  4  5  2  0  0  0
  4 11  1  0  0  0
  5  7  1  0  0  0
  5  6  1  0  0  0
  6 35  1  0  0  0
  7  8  2  0  0  0
  7  9  1  0  0  0
  9 10  1  0  0  0
  9 31  1  0  0  0
 10 11  2  0  0  0
 10 12  1  0  0  0
 12 13  1  0  0  0
 12 36  1  0  0  0
 12 37  1  0  0  0
 13 38  1  0  0  0
 13 39  1  0  0  0
 13 14  1  0  0  0
 14 16  1  0  0  0
 14 15  2  0  0  0
 16 17  1  0  0  0
 16 46  1  0  0  0
 17 21  1  0  0  0
 17 18  2  0  0  0
 18 19  1  0  0  0
 19 40  1  0  0  0
 19 20  2  0  0  0
 20 22  1  0  0  0
 20 21  1  0  0  0
 22 23  1  0  0  0
 22 41  1  0  0  0
 22 42  1  0  0  0
 23 28  1  0  0  0
 23 24  2  0  0  0
 24 25  1  0  0  0
 24 43  1  0  0  0
 25 26  2  0  0  0
 25 44  1  0  0  0
 26 27  1  0  0  0
 26 30  1  0  0  0
 27 28  2  0  0  0
 27 29  1  0  0  0
 28 45  1  0  0  0
M  END
> <s_m_source_file>
SM18.smi

> <i_m_source_file_index>
1

> <i_lp_mmshare_version>
40011

> <i_f3d_flags>
0

> <s_lp_Force_Field>
OPLS_2005

> <r_lp_Energy>
17.4490160392642

> <b_lp_Chiralities_Consistent>
1

> <s_lp_Variant>
SM18-1

> <s_epik_input>
W2NIXTFbY0hdW2NIXVtjSF1jKGMxMiljKD1PKVtuSF1jKG4yKVtDSDJdW0NIMl1DKD1PKVtOSF1jM25bY0hdYyhzMylbQ0gyXWM0W2NIXVtjSF1jKEYpYyhGKVtjSF00

> <s_epik_cmdline>
J2VwaWtfYXBwJywgJy1pbWFlJywgJ1NNMTguMi40Lm1hZScsICctb21hZScsICdTTTE4LmVwaWsuMi40Lm1hZScsICctcCcsICcwLjAwMDA0NTM5OTkyOTgnLCAnLXBoJywgJzIuNCc=

> <r_lp_tautomer_probability>
0.883054493714579

> <r_epik_Ionization_Penalty>
  0.5214

> <r_epik_Ionization_Penalty_Charging>
  0.0000

> <r_epik_Ionization_Penalty_Neutral>
  0.5214

> <r_epik_State_Penalty>
  0.1166

> <r_epik_Charging_Adjusted_Penalty>
0.116649726943084

> <i_epik_Tot_Q>
0

> <i_epik_Tot_abs_Q>
0

$$$$
SM18
                    3D
 Structure written by MMmdl.
 46 49  0  0  1  0            999 V2000
   -7.3988    0.3607   -0.0743 C   0  0  0  0  0  0
   -7.0782    0.9838   -1.2953 C   0  0  0  0  0  0
   -5.7573    1.3998   -1.5516 C   0  0  0  0  0  0
   -4.7452    1.1963   -0.5909 C   0  0  0  0  0  0
   -5.0740    0.5680    0.6401 C   0  0  0  0  0  0
   -6.3988    0.1521    0.8945 C   0  0  0  0  0  0
   -3.9779    0.3633    1.6499 C   0  0  0  0  0  0
   -4.1845   -0.1732    2.7373 O   0  0  0  0  0  0
   -2.7648    0.8124    1.2744 N   0  0  0  0  0  0
   -2.5308    1.4197    0.0342 C   0  0  0  0  0  0
   -3.4343    1.6215   -0.8771 N   0  0  0  0  0  0
   -1.0786    1.8259   -0.1366 C   0  0  0  0  0  0
   -0.1395    0.6175   -0.3288 C   0  0  0  0  0  0
    1.3283    1.0250   -0.4870 C   0  0  0  0  0  0
    1.7858    1.9410    0.1969 O   0  0  0  0  0  0
    2.0355    0.3207   -1.3905 N   0  0  0  0  0  0
    3.4088    0.4491   -1.7265 C   0  0  0  0  0  0
    4.2506    1.3117   -1.1467 N   0  0  0  0  0  0
    5.5486    1.1939   -1.6486 C   0  0  0  0  0  0
    5.6800    0.2476   -2.6363 C   0  0  0  0  0  0
    4.1573   -0.5392   -2.9706 S   0  0  0  0  0  0
    6.9209   -0.1238   -3.3789 C   0  0  0  0  0  0
    7.2362    0.8650   -4.4851 C   0  0  0  0  0  0
    8.1440    1.9205   -4.2566 C   0  0  0  0  0  0
    8.4313    2.8410   -5.2833 C   0  0  0  0  0  0
    7.8114    2.7103   -6.5413 C   0  0  0  0  0  0
    6.9035    1.6582   -6.7724 C   0  0  0  0  0  0
    6.6166    0.7372   -5.7461 C   0  0  0  0  0  0
    6.3054    1.5310   -7.9807 F   0  0  0  0  0  0
    8.0889    3.5966   -7.5270 F   0  0  0  0  0  0
   -3.2102    2.1026   -1.8405 H   0  0  0  0  0  0
   -8.3375    0.0661    0.1046 H   0  0  0  0  0  0
   -7.7908    1.1310   -1.9812 H   0  0  0  0  0  0
   -5.5320    1.8423   -2.4196 H   0  0  0  0  0  0
   -6.6274   -0.2901    1.7618 H   0  0  0  0  0  0
   -0.7779    2.3847    0.7619 H   0  0  0  0  0  0
   -1.0145    2.4836   -1.0160 H   0  0  0  0  0  0
   -0.2114   -0.0455    0.5460 H   0  0  0  0  0  0
   -0.4338    0.0646   -1.2330 H   0  0  0  0  0  0
    6.3445    1.7227   -1.3538 H   0  0  0  0  0  0
    6.7764   -1.1246   -3.8120 H   0  0  0  0  0  0
    7.7554   -0.1512   -2.6628 H   0  0  0  0  0  0
    8.6209    2.0286   -3.2935 H   0  0  0  0  0  0
    9.1269    3.6477   -5.1054 H   0  0  0  0  0  0
    5.9179   -0.0664   -5.9279 H   0  0  0  0  0  0
    1.4134   -0.4320   -1.8969 H   0  0  0  0  0  0
  1  6  2  0  0  0
  1 32  1  0  0  0
  1  2  1  0  0  0
  2 33  1  0  0  0
  2  3  2  0  0  0
  3 34  1  0  0  0
  3  4  1  0  0  0
  4  5  2  0  0  0
  4 11  1  0  0  0
  5  7  1  0  0  0
  5  6  1  0  0  0
  6 35  1  0  0  0
  7  8  2  0  0  0
  7  9  1  0  0  0
  9 10  2  0  0  0
 10 11  1  0  0  0
 10 12  1  0  0  0
 11 31  1  0  0  0
 12 13  1  0  0  0
 12 36  1  0  0  0
 12 37  1  0  0  0
 13 38  1  0  0  0
 13 39  1  0  0  0
 13 14  1  0  0  0
 14 16  1  0  0  0
 14 15  2  0  0  0
 16 17  1  0  0  0
 16 46  1  0  0  0
 17 21  1  0  0  0
 17 18  2  0  0  0
 18 19  1  0  0  0
 19 40  1  0  0  0
 19 20  2  0  0  0
 20 22  1  0  0  0
 20 21  1  0  0  0
 22 23  1  0  0  0
 22 41  1  0  0  0
 22 42  1  0  0  0
 23 28  1  0  0  0
 23 24  2  0  0  0
 24 25  1  0  0  0
 24 43  1  0  0  0
 25 26  2  0  0  0
 25 44  1  0  0  0
 26 27  1  0  0  0
 26 30  1  0  0  0
 27 28  2  0  0  0
 27 29  1  0  0  0
 28 45  1  0  0  0
M  END
> <s_m_source_file>
SM18.smi

> <i_m_source_file_index>
1

> <i_lp_mmshare_version>
40011

> <i_f3d_flags>
0

> <s_lp_Force_Field>
OPLS_2005

> <r_lp_Energy>
17.4490160392642

> <b_lp_Chiralities_Consistent>
1

> <s_lp_Variant>
SM18-1

> <s_epik_input>
W2NIXTFbY0hdW2NIXVtjSF1jKGMxMiljKD1PKVtuSF1jKG4yKVtDSDJdW0NIMl1DKD1PKVtOSF1jM25bY0hdYyhzMylbQ0gyXWM0W2NIXVtjSF1jKEYpYyhGKVtjSF00

> <s_epik_cmdline>
J2VwaWtfYXBwJywgJy1pbWFlJywgJ1NNMTguMi40Lm1hZScsICctb21hZScsICdTTTE4LmVwaWsuMi40Lm1hZScsICctcCcsICcwLjAwMDA0NTM5OTkyOTgnLCAnLXBoJywgJzIuNCc=

> <r_lp_tautomer_probability>
0.115935005679211

> <r_epik_Ionization_Penalty>
  0.8220

> <r_epik_Ionization_Penalty_Charging>
  0.0000

> <r_epik_Ionization_Penalty_Neutral>
  0.8220

> <r_epik_State_Penalty>
  1.4064

> <r_epik_Charging_Adjusted_Penalty>
1.40643448732161

> <i_epik_Tot_Q>
0

> <i_epik_Tot_abs_Q>
0

$$$$
SM18
                    3D
 Structure written by MMmdl.
 47 50  0  0  1  0            999 V2000
   -7.3988    0.3607   -0.0743 C   0  0  0  0  0  0
   -7.0782    0.9838   -1.2953 C   0  0  0  0  0  0
   -5.7573    1.3998   -1.5516 C   0  0  0  0  0  0
   -4.7452    1.1963   -0.5909 C   0  0  0  0  0  0
   -5.0740    0.5680    0.6401 C   0  0  0  0  0  0
   -6.3988    0.1521    0.8945 C   0  0  0  0  0  0
   -3.9779    0.3633    1.6499 C   0  0  0  0  0  0
   -4.1845   -0.1732    2.7373 O   0  0  0  0  0  0
   -2.7648    0.8124    1.2744 N   0  3  0  0  0  0
   -2.5308    1.4197    0.0342 C   0  0  0  0  0  0
   -3.4343    1.6215   -0.8771 N   0  0  0  0  0  0
   -1.0786    1.8259   -0.1366 C   0  0  0  0  0  0
   -0.1395    0.6175   -0.3288 C   0  0  0  0  0  0
    1.3283    1.0250   -0.4870 C   0  0  0  0  0  0
    1.7858    1.9410    0.1969 O   0  0  0  0  0  0
    2.0355    0.3207   -1.3905 N   0  0  0  0  0  0
    3.4088    0.4491   -1.7265 C   0  0  0  0  0  0
    4.2506    1.3117   -1.1467 N   0  0  0  0  0  0
    5.5486    1.1939   -1.6486 C   0  0  0  0  0  0
    5.6800    0.2476   -2.6363 C   0  0  0  0  0  0
    4.1573   -0.5392   -2.9706 S   0  0  0  0  0  0
    6.9209   -0.1238   -3.3789 C   0  0  0  0  0  0
    7.2362    0.8650   -4.4851 C   0  0  0  0  0  0
    8.1440    1.9205   -4.2566 C   0  0  0  0  0  0
    8.4313    2.8410   -5.2833 C   0  0  0  0  0  0
    7.8114    2.7103   -6.5413 C   0  0  0  0  0  0
    6.9035    1.6582   -6.7724 C   0  0  0  0  0  0
    6.6166    0.7372   -5.7461 C   0  0  0  0  0  0
    6.3054    1.5310   -7.9807 F   0  0  0  0  0  0
    8.0889    3.5966   -7.5270 F   0  0  0  0  0  0
   -1.9384    0.6855    1.9893 H   0  0  0  0  0  0
   -8.3375    0.0661    0.1046 H   0  0  0  0  0  0
   -7.7908    1.1308   -1.9813 H   0  0  0  0  0  0
   -5.5321    1.8427   -2.4195 H   0  0  0  0  0  0
   -6.6274   -0.2901    1.7618 H   0  0  0  0  0  0
   -0.7779    2.3847    0.7619 H   0  0  0  0  0  0
   -1.0145    2.4836   -1.0160 H   0  0  0  0  0  0
   -0.2114   -0.0455    0.5460 H   0  0  0  0  0  0
   -0.4338    0.0646   -1.2330 H   0  0  0  0  0  0
    6.3445    1.7227   -1.3538 H   0  0  0  0  0  0
    6.7764   -1.1246   -3.8120 H   0  0  0  0  0  0
    7.7554   -0.1512   -2.6628 H   0  0  0  0  0  0
    8.6209    2.0286   -3.2935 H   0  0  0  0  0  0
    9.1269    3.6477   -5.1054 H   0  0  0  0  0  0
    5.9179   -0.0664   -5.9279 H   0  0  0  0  0  0
    1.4134   -0.4320   -1.8969 H   0  0  0  0  0  0
   -3.2102    2.1026   -1.8405 H   0  0  0  0  0  0
  1  6  1  0  0  0
  1 32  1  0  0  0
  1  2  2  0  0  0
  2 33  1  0  0  0
  2  3  1  0  0  0
  3 34  1  0  0  0
  3  4  2  0  0  0
  4  5  1  0  0  0
  4 11  1  0  0  0
  5  7  1  0  0  0
  5  6  2  0  0  0
  6 35  1  0  0  0
  7  8  2  0  0  0
  7  9  1  0  0  0
  9 10  2  0  0  0
  9 31  1  0  0  0
 10 11  1  0  0  0
 10 12  1  0  0  0
 11 47  1  0  0  0
 12 13  1  0  0  0
 12 36  1  0  0  0
 12 37  1  0  0  0
 13 38  1  0  0  0
 13 39  1  0  0  0
 13 14  1  0  0  0
 14 16  1  0  0  0
 14 15  2  0  0  0
 16 17  1  0  0  0
 16 46  1  0  0  0
 17 21  1  0  0  0
 17 18  2  0  0  0
 18 19  1  0  0  0
 19 40  1  0  0  0
 19 20  2  0  0  0
 20 22  1  0  0  0
 20 21  1  0  0  0
 22 23  1  0  0  0
 22 41  1  0  0  0
 22 42  1  0  0  0
 23 28  1  0  0  0
 23 24  2  0  0  0
 24 25  1  0  0  0
 24 43  1  0  0  0
 25 26  2  0  0  0
 25 44  1  0  0  0
 26 27  1  0  0  0
 26 30  1  0  0  0
 27 28  2  0  0  0
 27 29  1  0  0  0
 28 45  1  0  0  0
M  CHG  1   9   1
M  END
> <s_m_source_file>
SM18.smi

> <i_m_source_file_index>
1

> <i_lp_mmshare_version>
40011

> <i_f3d_flags>
0

> <s_lp_Force_Field>
OPLS_2005

> <r_lp_Energy>
17.4490160392642

> <b_lp_Chiralities_Consistent>
1

> <s_lp_Variant>
SM18-1

> <s_epik_input>
W2NIXTFbY0hdW2NIXVtjSF1jKGMxMiljKD1PKVtuSF1jKG4yKVtDSDJdW0NIMl1DKD1PKVtOSF1jM25bY0hdYyhzMylbQ0gyXWM0W2NIXVtjSF1jKEYpYyhGKVtjSF00

> <s_epik_cmdline>
J2VwaWtfYXBwJywgJy1pbWFlJywgJ1NNMTguMi40Lm1hZScsICctb21hZScsICdTTTE4LmVwaWsuMi40Lm1hZScsICctcCcsICcwLjAwMDA0NTM5OTkyOTgnLCAnLXBoJywgJzIuNCc=

> <r_epik_Ionization_Penalty>
  2.3592

> <r_epik_Ionization_Penalty_Charging>
  1.8940

> <r_epik_Ionization_Penalty_Neutral>
  0.4653

> <r_epik_State_Penalty>
  1.5517

> <r_epik_Charging_Adjusted_Penalty>
3.44569356071633

> <i_epik_Tot_Q>
1

> <i_epik_Tot_abs_Q>
1

$$$$
SM18
                    3D
 Structure written by MMmdl.
 47 50  0  0  1  0            999 V2000
   -7.3988    0.3607   -0.0743 C   0  0  0  0  0  0
   -7.0782    0.9838   -1.2953 C   0  0  0  0  0  0
   -5.7573    1.3998   -1.5516 C   0  0  0  0  0  0
   -4.7452    1.1963   -0.5909 C   0  0  0  0  0  0
   -5.0740    0.5680    0.6401 C   0  0  0  0  0  0
   -6.3988    0.1521    0.8945 C   0  0  0  0  0  0
   -3.9779    0.3633    1.6499 C   0  0  0  0  0  0
   -4.1845   -0.1732    2.7373 O   0  0  0  0  0  0
   -2.7648    0.8124    1.2744 N   0  0  0  0  0  0
   -2.5308    1.4197    0.0342 C   0  0  0  0  0  0
   -3.4343    1.6215   -0.8771 N   0  0  0  0  0  0
   -1.0786    1.8259   -0.1366 C   0  0  0  0  0  0
   -0.1395    0.6175   -0.3288 C   0  0  0  0  0  0
    1.3283    1.0250   -0.4870 C   0  0  0  0  0  0
    1.7858    1.9410    0.1969 O   0  0  0  0  0  0
    2.0355    0.3207   -1.3905 N   0  0  0  0  0  0
    3.4088    0.4491   -1.7265 C   0  0  0  0  0  0
    4.2506    1.3117   -1.1467 N   0  3  0  0  0  0
    5.5486    1.1939   -1.6486 C   0  0  0  0  0  0
    5.6800    0.2476   -2.6363 C   0  0  0  0  0  0
    4.1573   -0.5392   -2.9706 S   0  0  0  0  0  0
    6.9209   -0.1238   -3.3789 C   0  0  0  0  0  0
    7.2362    0.8650   -4.4851 C   0  0  0  0  0  0
    8.1440    1.9205   -4.2566 C   0  0  0  0  0  0
    8.4313    2.8410   -5.2833 C   0  0  0  0  0  0
    7.8114    2.7103   -6.5413 C   0  0  0  0  0  0
    6.9035    1.6582   -6.7724 C   0  0  0  0  0  0
    6.6166    0.7372   -5.7461 C   0  0  0  0  0  0
    6.3054    1.5310   -7.9807 F   0  0  0  0  0  0
    8.0889    3.5966   -7.5270 F   0  0  0  0  0  0
   -1.9384    0.6855    1.9893 H   0  0  0  0  0  0
   -8.3375    0.0661    0.1046 H   0  0  0  0  0  0
   -7.7908    1.1308   -1.9813 H   0  0  0  0  0  0
   -5.5321    1.8427   -2.4195 H   0  0  0  0  0  0
   -6.6274   -0.2901    1.7618 H   0  0  0  0  0  0
   -0.7779    2.3847    0.7619 H   0  0  0  0  0  0
   -1.0145    2.4836   -1.0160 H   0  0  0  0  0  0
   -0.2114   -0.0455    0.5460 H   0  0  0  0  0  0
   -0.4338    0.0646   -1.2330 H   0  0  0  0  0  0
    6.3445    1.7227   -1.3538 H   0  0  0  0  0  0
    6.7764   -1.1246   -3.8120 H   0  0  0  0  0  0
    7.7554   -0.1512   -2.6628 H   0  0  0  0  0  0
    8.6209    2.0286   -3.2935 H   0  0  0  0  0  0
    9.1269    3.6477   -5.1054 H   0  0  0  0  0  0
    5.9179   -0.0664   -5.9279 H   0  0  0  0  0  0
    1.4134   -0.4320   -1.8969 H   0  0  0  0  0  0
    4.0283    2.0532   -0.3651 H   0  0  0  0  0  0
  1  6  2  0  0  0
  1 32  1  0  0  0
  1  2  1  0  0  0
  2 33  1  0  0  0
  2  3  2  0  0  0
  3 34  1  0  0  0
  3  4  1  0  0  0
  4  5  2  0  0  0
  4 11  1  0  0  0
  5  7  1  0  0  0
  5  6  1  0  0  0
  6 35  1  0  0  0
  7  8  2  0  0  0
  7  9  1  0  0  0
  9 10  1  0  0  0
  9 31  1  0  0  0
 10 11  2  0  0  0
 10 12  1  0  0  0
 12 13  1  0  0  0
 12 36  1  0  0  0
 12 37  1  0  0  0
 13 38  1  0  0  0
 13 39  1  0  0  0
 13 14  1  0  0  0
 14 16  1  0  0  0
 14 15  2  0  0  0
 16 17  1  0  0  0
 16 46  1  0  0  0
 17 21  1  0  0  0
 17 18  2  0  0  0
 18 19  1  0  0  0
 18 47  1  0  0  0
 19 40  1  0  0  0
 19 20  2  0  0  0
 20 22  1  0  0  0
 20 21  1  0  0  0
 22 23  1  0  0  0
 22 41  1  0  0  0
 22 42  1  0  0  0
 23 28  1  0  0  0
 23 24  2  0  0  0
 24 25  1  0  0  0
 24 43  1  0  0  0
 25 26  2  0  0  0
 25 44  1  0  0  0
 26 27  1  0  0  0
 26 30  1  0  0  0
 27 28  2  0  0  0
 27 29  1  0  0  0
 28 45  1  0  0  0
M  CHG  1  18   1
M  END
> <s_m_source_file>
SM18.smi

> <i_m_source_file_index>
1

> <i_lp_mmshare_version>
40011

> <i_f3d_flags>
0

> <s_lp_Force_Field>
OPLS_2005

> <r_lp_Energy>
17.4490160392642

> <b_lp_Chiralities_Consistent>
1

> <s_lp_Variant>
SM18-1

> <s_epik_input>
W2NIXTFbY0hdW2NIXVtjSF1jKGMxMiljKD1PKVtuSF1jKG4yKVtDSDJdW0NIMl1DKD1PKVtOSF1jM25bY0hdYyhzMylbQ0gyXWM0W2NIXVtjSF1jKEYpYyhGKVtjSF00

> <s_epik_cmdline>
J2VwaWtfYXBwJywgJy1pbWFlJywgJ1NNMTguMi40Lm1hZScsICctb21hZScsICdTTTE4LmVwaWsuMi40Lm1hZScsICctcCcsICcwLjAwMDA0NTM5OTkyOTgnLCAnLXBoJywgJzIuNCc=

> <r_lp_tautomer_probability>
0.883938

> <r_epik_Ionization_Penalty>
  0.4862

> <r_epik_Ionization_Penalty_Charging>
  0.3619

> <r_epik_Ionization_Penalty_Neutral>
  0.1243

> <r_epik_State_Penalty>
  2.7275

> <r_epik_Charging_Adjusted_Penalty>
3.08948464295928

> <i_epik_Tot_Q>
1

> <i_epik_Tot_abs_Q>
1

$$$$
SM18
                    3D
 Structure written by MMmdl.
 47 50  0  0  1  0            999 V2000
   -7.3988    0.3607   -0.0743 C   0  0  0  0  0  0
   -7.0782    0.9838   -1.2953 C   0  0  0  0  0  0
   -5.7573    1.3998   -1.5516 C   0  0  0  0  0  0
   -4.7452    1.1963   -0.5909 C   0  0  0  0  0  0
   -5.0740    0.5680    0.6401 C   0  0  0  0  0  0
   -6.3988    0.1521    0.8945 C   0  0  0  0  0  0
   -3.9779    0.3633    1.6499 C   0  0  0  0  0  0
   -4.1845   -0.1732    2.7373 O   0  0  0  0  0  0
   -2.7648    0.8124    1.2744 N   0  0  0  0  0  0
   -2.5308    1.4197    0.0342 C   0  0  0  0  0  0
   -3.4343    1.6215   -0.8771 N   0  0  0  0  0  0
   -1.0786    1.8259   -0.1366 C   0  0  0  0  0  0
   -0.1395    0.6175   -0.3288 C   0  0  0  0  0  0
    1.3283    1.0250   -0.4870 C   0  0  0  0  0  0
    1.7858    1.9410    0.1969 O   0  0  0  0  0  0
    2.0355    0.3207   -1.3905 N   0  0  0  0  0  0
    3.4088    0.4491   -1.7265 C   0  0  0  0  0  0
    4.2506    1.3117   -1.1467 N   0  3  0  0  0  0
    5.5486    1.1939   -1.6486 C   0  0  0  0  0  0
    5.6800    0.2476   -2.6363 C   0  0  0  0  0  0
    4.1573   -0.5392   -2.9706 S   0  0  0  0  0  0
    6.9209   -0.1238   -3.3789 C   0  0  0  0  0  0
    7.2362    0.8650   -4.4851 C   0  0  0  0  0  0
    8.1440    1.9205   -4.2566 C   0  0  0  0  0  0
    8.4313    2.8410   -5.2833 C   0  0  0  0  0  0
    7.8114    2.7103   -6.5413 C   0  0  0  0  0  0
    6.9035    1.6582   -6.7724 C   0  0  0  0  0  0
    6.6166    0.7372   -5.7461 C   0  0  0  0  0  0
    6.3054    1.5310   -7.9807 F   0  0  0  0  0  0
    8.0889    3.5966   -7.5270 F   0  0  0  0  0  0
   -3.2102    2.1026   -1.8405 H   0  0  0  0  0  0
   -8.3375    0.0661    0.1046 H   0  0  0  0  0  0
   -7.7908    1.1310   -1.9812 H   0  0  0  0  0  0
   -5.5320    1.8423   -2.4196 H   0  0  0  0  0  0
   -6.6274   -0.2901    1.7618 H   0  0  0  0  0  0
   -0.7779    2.3847    0.7619 H   0  0  0  0  0  0
   -1.0145    2.4836   -1.0160 H   0  0  0  0  0  0
   -0.2114   -0.0455    0.5460 H   0  0  0  0  0  0
   -0.4338    0.0646   -1.2330 H   0  0  0  0  0  0
    6.3445    1.7227   -1.3538 H   0  0  0  0  0  0
    6.7764   -1.1246   -3.8120 H   0  0  0  0  0  0
    7.7554   -0.1512   -2.6628 H   0  0  0  0  0  0
    8.6209    2.0286   -3.2935 H   0  0  0  0  0  0
    9.1269    3.6477   -5.1054 H   0  0  0  0  0  0
    5.9179   -0.0664   -5.9279 H   0  0  0  0  0  0
    1.4134   -0.4320   -1.8969 H   0  0  0  0  0  0
    4.0283    2.0532   -0.3651 H   0  0  0  0  0  0
  1  6  2  0  0  0
  1 32  1  0  0  0
  1  2  1  0  0  0
  2 33  1  0  0  0
  2  3  2  0  0  0
  3 34  1  0  0  0
  3  4  1  0  0  0
  4  5  2  0  0  0
  4 11  1  0  0  0
  5  7  1  0  0  0
  5  6  1  0  0  0
  6 35  1  0  0  0
  7  8  2  0  0  0
  7  9  1  0  0  0
  9 10  2  0  0  0
 10 11  1  0  0  0
 10 12  1  0  0  0
 11 31  1  0  0  0
 12 13  1  0  0  0
 12 36  1  0  0  0
 12 37  1  0  0  0
 13 38  1  0  0  0
 13 39  1  0  0  0
 13 14  1  0  0  0
 14 16  1  0  0  0
 14 15  2  0  0  0
 16 17  1  0  0  0
 16 46  1  0  0  0
 17 21  1  0  0  0
 17 18  2  0  0  0
 18 19  1  0  0  0
 18 47  1  0  0  0
 19 40  1  0  0  0
 19 20  2  0  0  0
 20 22  1  0  0  0
 20 21  1  0  0  0
 22 23  1  0  0  0
 22 41  1  0  0  0
 22 42  1  0  0  0
 23 28  1  0  0  0
 23 24  2  0  0  0
 24 25  1  0  0  0
 24 43  1  0  0  0
 25 26  2  0  0  0
 25 44  1  0  0  0
 26 27  1  0  0  0
 26 30  1  0  0  0
 27 28  2  0  0  0
 27 29  1  0  0  0
 28 45  1  0  0  0
M  CHG  1  18   1
M  END
> <s_m_source_file>
SM18.smi

> <i_m_source_file_index>
1

> <i_lp_mmshare_version>
40011

> <i_f3d_flags>
0

> <s_lp_Force_Field>
OPLS_2005

> <r_lp_Energy>
17.4490160392642

> <b_lp_Chiralities_Consistent>
1

> <s_lp_Variant>
SM18-1

> <s_epik_input>
W2NIXTFbY0hdW2NIXVtjSF1jKGMxMiljKD1PKVtuSF1jKG4yKVtDSDJdW0NIMl1DKD1PKVtOSF1jM25bY0hdYyhzMylbQ0gyXWM0W2NIXVtjSF1jKEYpYyhGKVtjSF00

> <s_epik_cmdline>
J2VwaWtfYXBwJywgJy1pbWFlJywgJ1NNMTguMi40Lm1hZScsICctb21hZScsICdTTTE4LmVwaWsuMi40Lm1hZScsICctcCcsICcwLjAwMDA0NTM5OTkyOTgnLCAnLXBoJywgJzIuNCc=

> <r_lp_tautomer_probability>
0.116051

> <r_epik_Ionization_Penalty>
  0.7744

> <r_epik_Ionization_Penalty_Charging>
  0.3619

> <r_epik_Ionization_Penalty_Neutral>
  0.4125

> <r_epik_State_Penalty>
  3.9082

> <r_epik_Charging_Adjusted_Penalty>
4.27016892989947

> <i_epik_Tot_Q>
1

> <i_epik_Tot_abs_Q>
1

$$$$
SM18
                    3D
 Structure written by MMmdl.
 46 49  0  0  1  0            999 V2000
   -7.4220    0.4927   -0.2162 C   0  0  0  0  0  0
   -7.0806    1.1063   -1.4363 C   0  0  0  0  0  0
   -5.7525    1.5076   -1.6790 C   0  0  0  0  0  0
   -4.7540    1.2986   -0.7052 C   0  0  0  0  0  0
   -5.1039    0.6800    0.5248 C   0  0  0  0  0  0
   -6.4358    0.2789    0.7655 C   0  0  0  0  0  0
   -4.0220    0.4692    1.5486 C   0  0  0  0  0  0
   -4.2470   -0.0597    2.6361 O   0  0  0  0  0  0
   -2.8000    0.9039    1.1854 N   0  0  0  0  0  0
   -2.5451    1.5025   -0.0549 C   0  0  0  0  0  0
   -3.4356    1.7090   -0.9779 N   0  0  0  0  0  0
   -1.0869    1.8930   -0.2104 C   0  0  0  0  0  0
   -0.1580    0.6741   -0.3854 C   0  0  0  0  0  0
    1.3157    1.0658   -0.5281 C   0  0  0  0  0  0
    1.7744    1.9806    0.1567 O   0  0  0  0  0  0
    2.0263    0.3498   -1.4196 N   0  0  0  0  0  0
    3.4048    0.4625   -1.7398 C   0  0  0  0  0  0
    4.2506    1.3117   -1.1467 N   0  0  0  0  0  0
    5.5486    1.1939   -1.6486 C   0  0  0  0  0  0
    5.6800    0.2476   -2.6363 C   0  0  0  0  0  0
    4.1545   -0.5295   -2.9803 S   0  0  0  0  0  0
    6.9209   -0.1238   -3.3789 C   0  0  0  0  0  0
    7.2362    0.8650   -4.4851 C   0  0  0  0  0  0
    8.1440    1.9205   -4.2566 C   0  0  0  0  0  0
    8.4313    2.8410   -5.2833 C   0  0  0  0  0  0
    7.8114    2.7103   -6.5413 C   0  0  0  0  0  0
    6.9035    1.6582   -6.7724 C   0  0  0  0  0  0
    6.6166    0.7372   -5.7461 C   0  0  0  0  0  0
    6.3054    1.5310   -7.9807 F   0  0  0  0  0  0
    8.0889    3.5966   -7.5270 F   0  0  0  0  0  0
   -1.9836    0.7722    1.9107 H   0  0  0  0  0  0
   -8.3658    0.2087   -0.0471 H   0  0  0  0  0  0
   -7.7835    1.2572   -2.1315 H   0  0  0  0  0  0
   -5.5125    1.9437   -2.5463 H   0  0  0  0  0  0
   -6.6792   -0.1566    1.6322 H   0  0  0  0  0  0
   -0.7911    2.4533    0.6889 H   0  0  0  0  0  0
   -1.0056    2.5456   -1.0922 H   0  0  0  0  0  0
   -0.2471    0.0163    0.4918 H   0  0  0  0  0  0
   -0.4472    0.1197   -1.2903 H   0  0  0  0  0  0
    6.3445    1.7227   -1.3538 H   0  0  0  0  0  0
    6.7764   -1.1246   -3.8120 H   0  0  0  0  0  0
    7.7554   -0.1512   -2.6628 H   0  0  0  0  0  0
    8.6209    2.0286   -3.2935 H   0  0  0  0  0  0
    9.1269    3.6477   -5.1054 H   0  0  0  0  0  0
    5.9179   -0.0664   -5.9279 H   0  0  0  0  0  0
    4.0314    2.0430   -0.3548 H   0  0  0  0  0  0
  1  6  2  0  0  0
  1 32  1  0  0  0
  1  2  1  0  0  0
  2 33  1  0  0  0
  2  3  2  0  0  0
  3 34  1  0  0  0
  3  4  1  0  0  0
  4  5  2  0  0  0
  4 11  1  0  0  0
  5  7  1  0  0  0
  5  6  1  0  0  0
  6 35  1  0  0  0
  7  8  2  0  0  0
  7  9  1  0  0  0
  9 10  1  0  0  0
  9 31  1  0  0  0
 10 11  2  0  0  0
 10 12  1  0  0  0
 12 13  1  0  0  0
 12 36  1  0  0  0
 12 37  1  0  0  0
 13 38  1  0  0  0
 13 39  1  0  0  0
 13 14  1  0  0  0
 14 16  1  0  0  0
 14 15  2  0  0  0
 16 17  2  0  0  0
 17 21  1  0  0  0
 17 18  1  0  0  0
 18 19  1  0  0  0
 18 46  1  0  0  0
 19 40  1  0  0  0
 19 20  2  0  0  0
 20 22  1  0  0  0
 20 21  1  0  0  0
 22 23  1  0  0  0
 22 41  1  0  0  0
 22 42  1  0  0  0
 23 28  1  0  0  0
 23 24  2  0  0  0
 24 25  1  0  0  0
 24 43  1  0  0  0
 25 26  2  0  0  0
 25 44  1  0  0  0
 26 27  1  0  0  0
 26 30  1  0  0  0
 27 28  2  0  0  0
 27 29  1  0  0  0
 28 45  1  0  0  0
M  END
> <s_m_source_file>
SM18.smi

> <i_m_source_file_index>
1

> <i_lp_mmshare_version>
40011

> <i_f3d_flags>
0

> <s_lp_Force_Field>
OPLS_2005

> <r_lp_Energy>
17.4490160392642

> <b_lp_Chiralities_Consistent>
1

> <s_lp_Variant>
SM18-1

> <s_epik_input>
W2NIXTFbY0hdW2NIXVtjSF1jKGMxMiljKD1PKVtuSF1jKG4yKVtDSDJdW0NIMl1DKD1PKVtOSF1jM25bY0hdYyhzMylbQ0gyXWM0W2NIXVtjSF1jKEYpYyhGKVtjSF00

> <s_epik_cmdline>
J2VwaWtfYXBwJywgJy1pbWFlJywgJ1NNMTguMi40Lm1hZScsICctb21hZScsICdTTTE4LmVwaWsuMi40Lm1hZScsICctcCcsICcwLjAwMDA0NTM5OTkyOTgnLCAnLXBoJywgJzIuNCc=

> <r_lp_tautomer_probability>
0.000441748120917748

> <r_epik_Ionization_Penalty>
  3.5002

> <r_epik_Ionization_Penalty_Charging>
  1.3258

> <r_epik_Ionization_Penalty_Neutral>
  2.1745

> <r_epik_State_Penalty>
  4.4623

> <r_epik_Charging_Adjusted_Penalty>
5.78803148309665

> <i_epik_Tot_Q>
0

> <i_epik_Tot_abs_Q>
0

$$$$
SM18
                    3D
 Structure written by MMmdl.
 46 49  0  0  1  0            999 V2000
   -6.8466   -1.2910    1.6332 C   0  0  0  0  0  0
   -5.9152   -1.8005    2.5576 C   0  0  0  0  0  0
   -4.5708   -1.9833    2.1794 C   0  0  0  0  0  0
   -4.1453   -1.6579    0.8748 C   0  0  0  0  0  0
   -5.0893   -1.1450   -0.0546 C   0  0  0  0  0  0
   -6.4362   -0.9630    0.3270 C   0  0  0  0  0  0
   -4.6121   -0.8068   -1.4406 C   0  0  0  0  0  0
   -5.3693   -0.3582   -2.2999 O   0  0  0  0  0  0
   -3.3037   -1.0347   -1.6653 N   0  0  0  0  0  0
   -2.4424   -1.5420   -0.6842 C   0  0  0  0  0  0
   -2.7949   -1.8501    0.5275 N   0  0  0  0  0  0
   -1.0226   -1.6972   -1.1973 C   0  0  0  0  0  0
   -0.3113   -0.3442   -1.4034 C   0  0  0  0  0  0
    1.1168   -0.4986   -1.9347 C   0  0  0  0  0  0
    1.3641   -1.3557   -2.7835 O   0  0  0  0  0  0
    2.0263    0.3498   -1.4196 N   0  0  0  0  0  0
    3.4048    0.4625   -1.7398 C   0  0  0  0  0  0
    4.2506    1.3117   -1.1467 N   0  0  0  0  0  0
    5.5486    1.1939   -1.6486 C   0  0  0  0  0  0
    5.6800    0.2476   -2.6363 C   0  0  0  0  0  0
    4.1545   -0.5295   -2.9803 S   0  0  0  0  0  0
    6.9209   -0.1238   -3.3789 C   0  0  0  0  0  0
    7.2362    0.8650   -4.4851 C   0  0  0  0  0  0
    8.1440    1.9205   -4.2566 C   0  0  0  0  0  0
    8.4313    2.8410   -5.2833 C   0  0  0  0  0  0
    7.8114    2.7103   -6.5413 C   0  0  0  0  0  0
    6.9035    1.6582   -6.7724 C   0  0  0  0  0  0
    6.6166    0.7372   -5.7461 C   0  0  0  0  0  0
    6.3054    1.5310   -7.9807 F   0  0  0  0  0  0
    8.0889    3.5966   -7.5270 F   0  0  0  0  0  0
   -2.9187   -0.8047   -2.6697 H   0  0  0  0  0  0
   -7.8003   -1.1620    1.9048 H   0  0  0  0  0  0
   -6.2098   -2.0329    3.4845 H   0  0  0  0  0  0
   -3.9111   -2.3459    2.8377 H   0  0  0  0  0  0
   -7.0985   -0.6015   -0.3293 H   0  0  0  0  0  0
   -1.0682   -2.2370   -2.1547 H   0  0  0  0  0  0
   -0.4638   -2.2974   -0.4642 H   0  0  0  0  0  0
   -0.8758    0.2602   -2.1287 H   0  0  0  0  0  0
   -0.2564    0.1911   -0.4440 H   0  0  0  0  0  0
    6.3445    1.7227   -1.3538 H   0  0  0  0  0  0
    6.7764   -1.1246   -3.8120 H   0  0  0  0  0  0
    7.7554   -0.1512   -2.6628 H   0  0  0  0  0  0
    8.6209    2.0286   -3.2935 H   0  0  0  0  0  0
    9.1269    3.6477   -5.1054 H   0  0  0  0  0  0
    5.9179   -0.0664   -5.9279 H   0  0  0  0  0  0
    4.0314    2.0430   -0.3548 H   0  0  0  0  0  0
  1  6  2  0  0  0
  1 32  1  0  0  0
  1  2  1  0  0  0
  2 33  1  0  0  0
  2  3  2  0  0  0
  3 34  1  0  0  0
  3  4  1  0  0  0
  4  5  2  0  0  0
  4 11  1  0  0  0
  5  7  1  0  0  0
  5  6  1  0  0  0
  6 35  1  0  0  0
  7  8  2  0  0  0
  7  9  1  0  0  0
  9 10  1  0  0  0
  9 31  1  0  0  0
 10 11  2  0  0  0
 10 12  1  0  0  0
 12 13  1  0  0  0
 12 36  1  0  0  0
 12 37  1  0  0  0
 13 38  1  0  0  0
 13 39  1  0  0  0
 13 14  1  0  0  0
 14 16  1  0  0  0
 14 15  2  0  0  0
 16 17  2  0  0  0
 17 21  1  0  0  0
 17 18  1  0  0  0
 18 19  1  0  0  0
 18 46  1  0  0  0
 19 40  1  0  0  0
 19 20  2  0  0  0
 20 22  1  0  0  0
 20 21  1  0  0  0
 22 23  1  0  0  0
 22 41  1  0  0  0
 22 42  1  0  0  0
 23 28  1  0  0  0
 23 24  2  0  0  0
 24 25  1  0  0  0
 24 43  1  0  0  0
 25 26  2  0  0  0
 25 44  1  0  0  0
 26 27  1  0  0  0
 26 30  1  0  0  0
 27 28  2  0  0  0
 27 29  1  0  0  0
 28 45  1  0  0  0
M  END
> <s_m_source_file>
SM18.smi

> <i_m_source_file_index>
1

> <i_lp_mmshare_version>
40011

> <i_f3d_flags>
0

> <s_lp_Force_Field>
OPLS_2005

> <r_lp_Energy>
17.4490160392642

> <b_lp_Chiralities_Consistent>
1

> <s_lp_Variant>
SM18-1

> <s_epik_input>
W2NIXTFbY0hdW2NIXVtjSF1jKGMxMiljKD1PKVtuSF1jKG4yKVtDSDJdW0NIMl1DKD1PKVtOSF1jM25bY0hdYyhzMylbQ0gyXWM0W2NIXVtjSF1jKEYpYyhGKVtjSF00

> <s_epik_cmdline>
J2VwaWtfYXBwJywgJy1pbWFlJywgJ1NNMTguMi40Lm1hZScsICctb21hZScsICdTTTE4LmVwaWsuMi40Lm1hZScsICctcCcsICcwLjAwMDA0NTM5OTkyOTgnLCAnLXBoJywgJzIuNCc=

> <r_lp_tautomer_probability>
0.000441748120917748

> <r_epik_Ionization_Penalty>
  3.5002

> <r_epik_Ionization_Penalty_Charging>
  1.3258

> <r_epik_Ionization_Penalty_Neutral>
  2.1745

> <r_epik_State_Penalty>
  4.4623

> <r_epik_Charging_Adjusted_Penalty>
5.78803148309665

> <i_epik_Tot_Q>
0

> <i_epik_Tot_abs_Q>
0

$$$$
SM18
                    3D
 Structure written by MMmdl.
 47 50  0  0  1  0            999 V2000
   -6.8466   -1.2910    1.6332 C   0  0  0  0  0  0
   -5.9152   -1.8005    2.5576 C   0  0  0  0  0  0
   -4.5708   -1.9833    2.1794 C   0  0  0  0  0  0
   -4.1453   -1.6579    0.8748 C   0  0  0  0  0  0
   -5.0893   -1.1450   -0.0546 C   0  0  0  0  0  0
   -6.4362   -0.9630    0.3270 C   0  0  0  0  0  0
   -4.6121   -0.8068   -1.4406 C   0  0  0  0  0  0
   -5.3693   -0.3582   -2.2999 O   0  0  0  0  0  0
   -3.3037   -1.0347   -1.6653 N   0  3  0  0  0  0
   -2.4424   -1.5420   -0.6842 C   0  0  0  0  0  0
   -2.7949   -1.8501    0.5275 N   0  0  0  0  0  0
   -1.0226   -1.6972   -1.1973 C   0  0  0  0  0  0
   -0.3113   -0.3442   -1.4034 C   0  0  0  0  0  0
    1.1168   -0.4986   -1.9347 C   0  0  0  0  0  0
    1.3641   -1.3557   -2.7835 O   0  0  0  0  0  0
    2.0263    0.3498   -1.4196 N   0  0  0  0  0  0
    3.4048    0.4625   -1.7398 C   0  0  0  0  0  0
    4.2506    1.3117   -1.1467 N   0  0  0  0  0  0
    5.5486    1.1939   -1.6486 C   0  0  0  0  0  0
    5.6800    0.2476   -2.6363 C   0  0  0  0  0  0
    4.1545   -0.5295   -2.9803 S   0  0  0  0  0  0
    6.9209   -0.1238   -3.3789 C   0  0  0  0  0  0
    7.2362    0.8650   -4.4851 C   0  0  0  0  0  0
    8.1440    1.9205   -4.2566 C   0  0  0  0  0  0
    8.4313    2.8410   -5.2833 C   0  0  0  0  0  0
    7.8114    2.7103   -6.5413 C   0  0  0  0  0  0
    6.9035    1.6582   -6.7724 C   0  0  0  0  0  0
    6.6166    0.7372   -5.7461 C   0  0  0  0  0  0
    6.3054    1.5310   -7.9807 F   0  0  0  0  0  0
    8.0889    3.5966   -7.5270 F   0  0  0  0  0  0
   -2.9187   -0.8047   -2.6697 H   0  0  0  0  0  0
   -7.8003   -1.1620    1.9048 H   0  0  0  0  0  0
   -6.2098   -2.0329    3.4845 H   0  0  0  0  0  0
   -3.9111   -2.3459    2.8377 H   0  0  0  0  0  0
   -7.0985   -0.6015   -0.3293 H   0  0  0  0  0  0
   -1.0682   -2.2370   -2.1547 H   0  0  0  0  0  0
   -0.4638   -2.2974   -0.4642 H   0  0  0  0  0  0
   -0.8758    0.2602   -2.1287 H   0  0  0  0  0  0
   -0.2564    0.1911   -0.4440 H   0  0  0  0  0  0
    6.3445    1.7227   -1.3538 H   0  0  0  0  0  0
    6.7764   -1.1246   -3.8120 H   0  0  0  0  0  0
    7.7554   -0.1512   -2.6628 H   0  0  0  0  0  0
    8.6209    2.0286   -3.2935 H   0  0  0  0  0  0
    9.1269    3.6477   -5.1054 H   0  0  0  0  0  0
    5.9179   -0.0664   -5.9279 H   0  0  0  0  0  0
    4.0314    2.0430   -0.3548 H   0  0  0  0  0  0
   -2.0870   -2.2464    1.2703 H   0  0  0  0  0  0
  1  6  1  0  0  0
  1 32  1  0  0  0
  1  2  2  0  0  0
  2 33  1  0  0  0
  2  3  1  0  0  0
  3 34  1  0  0  0
  3  4  2  0  0  0
  4  5  1  0  0  0
  4 11  1  0  0  0
  5  7  1  0  0  0
  5  6  2  0  0  0
  6 35  1  0  0  0
  7  8  2  0  0  0
  7  9  1  0  0  0
  9 10  2  0  0  0
  9 31  1  0  0  0
 10 11  1  0  0  0
 10 12  1  0  0  0
 11 47  1  0  0  0
 12 13  1  0  0  0
 12 36  1  0  0  0
 12 37  1  0  0  0
 13 38  1  0  0  0
 13 39  1  0  0  0
 13 14  1  0  0  0
 14 16  1  0  0  0
 14 15  2  0  0  0
 16 17  2  0  0  0
 17 21  1  0  0  0
 17 18  1  0  0  0
 18 19  1  0  0  0
 18 46  1  0  0  0
 19 40  1  0  0  0
 19 20  2  0  0  0
 20 22  1  0  0  0
 20 21  1  0  0  0
 22 23  1  0  0  0
 22 41  1  0  0  0
 22 42  1  0  0  0
 23 28  1  0  0  0
 23 24  2  0  0  0
 24 25  1  0  0  0
 24 43  1  0  0  0
 25 26  2  0  0  0
 25 44  1  0  0  0
 26 27  1  0  0  0
 26 30  1  0  0  0
 27 28  2  0  0  0
 27 29  1  0  0  0
 28 45  1  0  0  0
M  CHG  1   9   1
M  END
> <s_m_source_file>
SM18.smi

> <i_m_source_file_index>
1

> <i_lp_mmshare_version>
40011

> <i_f3d_flags>
0

> <s_lp_Force_Field>
OPLS_2005

> <r_lp_Energy>
17.4490160392642

> <b_lp_Chiralities_Consistent>
1

> <s_lp_Variant>
SM18-1

> <s_epik_input>
W2NIXTFbY0hdW2NIXVtjSF1jKGMxMiljKD1PKVtuSF1jKG4yKVtDSDJdW0NIMl1DKD1PKVtOSF1jM25bY0hdYyhzMylbQ0gyXWM0W2NIXVtjSF1jKEYpYyhGKVtjSF00

> <s_epik_cmdline>
J2VwaWtfYXBwJywgJy1pbWFlJywgJ1NNMTguMi40Lm1hZScsICctb21hZScsICdTTTE4LmVwaWsuMi40Lm1hZScsICctcCcsICcwLjAwMDA0NTM5OTkyOTgnLCAnLXBoJywgJzIuNCc=

> <r_epik_Ionization_Penalty>
  4.9381

> <r_epik_Ionization_Penalty_Charging>
  2.8429

> <r_epik_Ionization_Penalty_Neutral>
  2.0952

> <r_epik_State_Penalty>
  5.6276

> <r_epik_Charging_Adjusted_Penalty>
8.4705215155183

> <i_epik_Tot_Q>
1

> <i_epik_Tot_abs_Q>
1

$$$$
SM18
                    3D
 Structure written by MMmdl.
 47 50  0  0  1  0            999 V2000
   -7.4220    0.4927   -0.2162 C   0  0  0  0  0  0
   -7.0806    1.1063   -1.4363 C   0  0  0  0  0  0
   -5.7525    1.5076   -1.6790 C   0  0  0  0  0  0
   -4.7540    1.2986   -0.7052 C   0  0  0  0  0  0
   -5.1039    0.6800    0.5248 C   0  0  0  0  0  0
   -6.4358    0.2789    0.7655 C   0  0  0  0  0  0
   -4.0220    0.4692    1.5486 C   0  0  0  0  0  0
   -4.2470   -0.0597    2.6361 O   0  0  0  0  0  0
   -2.8000    0.9039    1.1854 N   0  3  0  0  0  0
   -2.5451    1.5025   -0.0549 C   0  0  0  0  0  0
   -3.4356    1.7090   -0.9779 N   0  0  0  0  0  0
   -1.0869    1.8930   -0.2104 C   0  0  0  0  0  0
   -0.1580    0.6741   -0.3854 C   0  0  0  0  0  0
    1.3157    1.0658   -0.5281 C   0  0  0  0  0  0
    1.7744    1.9806    0.1567 O   0  0  0  0  0  0
    2.0263    0.3498   -1.4196 N   0  0  0  0  0  0
    3.4048    0.4625   -1.7398 C   0  0  0  0  0  0
    4.2506    1.3117   -1.1467 N   0  0  0  0  0  0
    5.5486    1.1939   -1.6486 C   0  0  0  0  0  0
    5.6800    0.2476   -2.6363 C   0  0  0  0  0  0
    4.1545   -0.5295   -2.9803 S   0  0  0  0  0  0
    6.9209   -0.1238   -3.3789 C   0  0  0  0  0  0
    7.2362    0.8650   -4.4851 C   0  0  0  0  0  0
    8.1440    1.9205   -4.2566 C   0  0  0  0  0  0
    8.4313    2.8410   -5.2833 C   0  0  0  0  0  0
    7.8114    2.7103   -6.5413 C   0  0  0  0  0  0
    6.9035    1.6582   -6.7724 C   0  0  0  0  0  0
    6.6166    0.7372   -5.7461 C   0  0  0  0  0  0
    6.3054    1.5310   -7.9807 F   0  0  0  0  0  0
    8.0889    3.5966   -7.5270 F   0  0  0  0  0  0
   -1.9836    0.7722    1.9107 H   0  0  0  0  0  0
   -8.3658    0.2087   -0.0471 H   0  0  0  0  0  0
   -7.7835    1.2572   -2.1315 H   0  0  0  0  0  0
   -5.5125    1.9437   -2.5463 H   0  0  0  0  0  0
   -6.6792   -0.1566    1.6322 H   0  0  0  0  0  0
   -0.7911    2.4533    0.6889 H   0  0  0  0  0  0
   -1.0056    2.5456   -1.0922 H   0  0  0  0  0  0
   -0.2471    0.0163    0.4918 H   0  0  0  0  0  0
   -0.4472    0.1197   -1.2903 H   0  0  0  0  0  0
    6.3445    1.7227   -1.3538 H   0  0  0  0  0  0
    6.7764   -1.1246   -3.8120 H   0  0  0  0  0  0
    7.7554   -0.1512   -2.6628 H   0  0  0  0  0  0
    8.6209    2.0286   -3.2935 H   0  0  0  0  0  0
    9.1269    3.6477   -5.1054 H   0  0  0  0  0  0
    5.9179   -0.0664   -5.9279 H   0  0  0  0  0  0
    4.0314    2.0430   -0.3548 H   0  0  0  0  0  0
   -3.1951    2.1829   -1.9410 H   0  0  0  0  0  0
  1  6  1  0  0  0
  1 32  1  0  0  0
  1  2  2  0  0  0
  2 33  1  0  0  0
  2  3  1  0  0  0
  3 34  1  0  0  0
  3  4  2  0  0  0
  4  5  1  0  0  0
  4 11  1  0  0  0
  5  7  1  0  0  0
  5  6  2  0  0  0
  6 35  1  0  0  0
  7  8  2  0  0  0
  7  9  1  0  0  0
  9 10  2  0  0  0
  9 31  1  0  0  0
 10 11  1  0  0  0
 10 12  1  0  0  0
 11 47  1  0  0  0
 12 13  1  0  0  0
 12 36  1  0  0  0
 12 37  1  0  0  0
 13 38  1  0  0  0
 13 39  1  0  0  0
 13 14  1  0  0  0
 14 16  1  0  0  0
 14 15  2  0  0  0
 16 17  2  0  0  0
 17 21  1  0  0  0
 17 18  1  0  0  0
 18 19  1  0  0  0
 18 46  1  0  0  0
 19 40  1  0  0  0
 19 20  2  0  0  0
 20 22  1  0  0  0
 20 21  1  0  0  0
 22 23  1  0  0  0
 22 41  1  0  0  0
 22 42  1  0  0  0
 23 28  1  0  0  0
 23 24  2  0  0  0
 24 25  1  0  0  0
 24 43  1  0  0  0
 25 26  2  0  0  0
 25 44  1  0  0  0
 26 27  1  0  0  0
 26 30  1  0  0  0
 27 28  2  0  0  0
 27 29  1  0  0  0
 28 45  1  0  0  0
M  CHG  1   9   1
M  END
> <s_m_source_file>
SM18.smi

> <i_m_source_file_index>
1

> <i_lp_mmshare_version>
40011

> <i_f3d_flags>
0

> <s_lp_Force_Field>
OPLS_2005

> <r_lp_Energy>
17.4490160392642

> <b_lp_Chiralities_Consistent>
1

> <s_lp_Variant>
SM18-1

> <s_epik_input>
W2NIXTFbY0hdW2NIXVtjSF1jKGMxMiljKD1PKVtuSF1jKG4yKVtDSDJdW0NIMl1DKD1PKVtOSF1jM25bY0hdYyhzMylbQ0gyXWM0W2NIXVtjSF1jKEYpYyhGKVtjSF00

> <s_epik_cmdline>
J2VwaWtfYXBwJywgJy1pbWFlJywgJ1NNMTguMi40Lm1hZScsICctb21hZScsICdTTTE4LmVwaWsuMi40Lm1hZScsICctcCcsICcwLjAwMDA0NTM5OTkyOTgnLCAnLXBoJywgJzIuNCc=

> <r_epik_Ionization_Penalty>
  4.9381

> <r_epik_Ionization_Penalty_Charging>
  2.8429

> <r_epik_Ionization_Penalty_Neutral>
  2.0952

> <r_epik_State_Penalty>
  5.6276

> <r_epik_Charging_Adjusted_Penalty>
8.4705215155183

> <i_epik_Tot_Q>
1

> <i_epik_Tot_abs_Q>
1

$$$$
SM18
                    3D
 Structure written by MMmdl.
 46 49  0  0  1  0            999 V2000
   -7.4220    0.4927   -0.2162 C   0  0  0  0  0  0
   -7.0806    1.1063   -1.4363 C   0  0  0  0  0  0
   -5.7525    1.5076   -1.6790 C   0  0  0  0  0  0
   -4.7540    1.2986   -0.7052 C   0  0  0  0  0  0
   -5.1039    0.6800    0.5248 C   0  0  0  0  0  0
   -6.4358    0.2789    0.7655 C   0  0  0  0  0  0
   -4.0220    0.4692    1.5486 C   0  0  0  0  0  0
   -4.2470   -0.0597    2.6361 O   0  0  0  0  0  0
   -2.8000    0.9039    1.1854 N   0  0  0  0  0  0
   -2.5451    1.5025   -0.0549 C   0  0  0  0  0  0
   -3.4356    1.7090   -0.9779 N   0  0  0  0  0  0
   -1.0869    1.8930   -0.2104 C   0  0  0  0  0  0
   -0.1580    0.6741   -0.3854 C   0  0  0  0  0  0
    1.3157    1.0658   -0.5281 C   0  0  0  0  0  0
    1.7744    1.9806    0.1567 O   0  0  0  0  0  0
    2.0263    0.3498   -1.4196 N   0  0  0  0  0  0
    3.4048    0.4625   -1.7398 C   0  0  0  0  0  0
    4.2506    1.3117   -1.1467 N   0  0  0  0  0  0
    5.5486    1.1939   -1.6486 C   0  0  0  0  0  0
    5.6800    0.2476   -2.6363 C   0  0  0  0  0  0
    4.1545   -0.5295   -2.9803 S   0  0  0  0  0  0
    6.9209   -0.1238   -3.3789 C   0  0  0  0  0  0
    7.2362    0.8650   -4.4851 C   0  0  0  0  0  0
    8.1440    1.9205   -4.2566 C   0  0  0  0  0  0
    8.4313    2.8410   -5.2833 C   0  0  0  0  0  0
    7.8114    2.7103   -6.5413 C   0  0  0  0  0  0
    6.9035    1.6582   -6.7724 C   0  0  0  0  0  0
    6.6166    0.7372   -5.7461 C   0  0  0  0  0  0
    6.3054    1.5310   -7.9807 F   0  0  0  0  0  0
    8.0889    3.5966   -7.5270 F   0  0  0  0  0  0
   -3.1951    2.1829   -1.9410 H   0  0  0  0  0  0
   -8.3658    0.2087   -0.0471 H   0  0  0  0  0  0
   -7.7835    1.2573   -2.1314 H   0  0  0  0  0  0
   -5.5124    1.9434   -2.5464 H   0  0  0  0  0  0
   -6.6792   -0.1566    1.6322 H   0  0  0  0  0  0
   -0.7911    2.4533    0.6889 H   0  0  0  0  0  0
   -1.0056    2.5456   -1.0922 H   0  0  0  0  0  0
   -0.2471    0.0163    0.4918 H   0  0  0  0  0  0
   -0.4472    0.1197   -1.2903 H   0  0  0  0  0  0
    6.3445    1.7227   -1.3538 H   0  0  0  0  0  0
    6.7764   -1.1246   -3.8120 H   0  0  0  0  0  0
    7.7554   -0.1512   -2.6628 H   0  0  0  0  0  0
    8.6209    2.0286   -3.2935 H   0  0  0  0  0  0
    9.1269    3.6477   -5.1054 H   0  0  0  0  0  0
    5.9179   -0.0664   -5.9279 H   0  0  0  0  0  0
    4.0314    2.0430   -0.3548 H   0  0  0  0  0  0
  1  6  2  0  0  0
  1 32  1  0  0  0
  1  2  1  0  0  0
  2 33  1  0  0  0
  2  3  2  0  0  0
  3 34  1  0  0  0
  3  4  1  0  0  0
  4  5  2  0  0  0
  4 11  1  0  0  0
  5  7  1  0  0  0
  5  6  1  0  0  0
  6 35  1  0  0  0
  7  8  2  0  0  0
  7  9  1  0  0  0
  9 10  2  0  0  0
 10 11  1  0  0  0
 10 12  1  0  0  0
 11 31  1  0  0  0
 12 13  1  0  0  0
 12 36  1  0  0  0
 12 37  1  0  0  0
 13 38  1  0  0  0
 13 39  1  0  0  0
 13 14  1  0  0  0
 14 16  1  0  0  0
 14 15  2  0  0  0
 16 17  2  0  0  0
 17 21  1  0  0  0
 17 18  1  0  0  0
 18 19  1  0  0  0
 18 46  1  0  0  0
 19 40  1  0  0  0
 19 20  2  0  0  0
 20 22  1  0  0  0
 20 21  1  0  0  0
 22 23  1  0  0  0
 22 41  1  0  0  0
 22 42  1  0  0  0
 23 28  1  0  0  0
 23 24  2  0  0  0
 24 25  1  0  0  0
 24 43  1  0  0  0
 25 26  2  0  0  0
 25 44  1  0  0  0
 26 27  1  0  0  0
 26 30  1  0  0  0
 27 28  2  0  0  0
 27 29  1  0  0  0
 28 45  1  0  0  0
M  END
> <s_m_source_file>
SM18.smi

> <i_m_source_file_index>
1

> <i_lp_mmshare_version>
40011

> <i_f3d_flags>
0

> <s_lp_Force_Field>
OPLS_2005

> <r_lp_Energy>
17.4490160392642

> <b_lp_Chiralities_Consistent>
1

> <s_lp_Variant>
SM18-1

> <s_epik_input>
W2NIXTFbY0hdW2NIXVtjSF1jKGMxMiljKD1PKVtuSF1jKG4yKVtDSDJdW0NIMl1DKD1PKVtOSF1jM25bY0hdYyhzMylbQ0gyXWM0W2NIXVtjSF1jKEYpYyhGKVtjSF00

> <s_epik_cmdline>
J2VwaWtfYXBwJywgJy1pbWFlJywgJ1NNMTguMi40Lm1hZScsICctb21hZScsICdTTTE4LmVwaWsuMi40Lm1hZScsICctcCcsICcwLjAwMDA0NTM5OTkyOTgnLCAnLXBoJywgJzIuNCc=

> <r_lp_tautomer_probability>
5.79965010901507e-05

> <r_epik_Ionization_Penalty>
  3.9887

> <r_epik_Ionization_Penalty_Charging>
  1.3257

> <r_epik_Ionization_Penalty_Neutral>
  2.6630

> <r_epik_State_Penalty>
  5.8012

> <r_epik_Charging_Adjusted_Penalty>
7.1269610956163

> <i_epik_Tot_Q>
0

> <i_epik_Tot_abs_Q>
0

$$$$
