SM20
                    3D
 Structure written by MMmdl.
 35 37  0  0  1  0            999 V2000
   -2.0185    1.2063   -0.0133 C   0  0  0  0  0  0
   -2.7548    0.0094   -0.0786 C   0  0  0  0  0  0
   -2.0912   -1.2333   -0.1165 C   0  0  0  0  0  0
   -0.6798   -1.2640   -0.0643 C   0  0  0  0  0  0
    0.0729   -0.0643   -0.0028 C   0  0  0  0  0  0
   -0.6125    1.1666    0.0206 C   0  0  0  0  0  0
    1.4497   -0.0139    0.0367 O   0  0  0  0  0  0
    2.1711   -1.2385    0.0212 C   0  0  0  0  0  0
    3.6691   -0.9954    0.0745 C   0  0  0  0  0  0
    4.4637   -1.3024   -1.0511 C   0  0  0  0  0  0
    5.8540   -1.0817   -1.0230 C   0  0  0  0  0  0
    6.4593   -0.5533    0.1328 C   0  0  0  0  0  0
    5.6729   -0.2472    1.2598 C   0  0  0  0  0  0
    4.2810   -0.4665    1.2360 C   0  0  0  0  0  0
    3.3501   -0.0782    2.6401 Cl  0  0  0  0  0  0
    8.1625   -0.2805    0.1681 Cl  0  0  0  0  0  0
   -2.8921   -2.4671   -0.1812 C   0  0  0  0  0  0
   -2.7537   -3.5361   -0.9956 C   0  0  0  0  0  0
   -1.8299   -3.6829   -2.1321 C   0  0  0  0  0  0
   -1.0365   -2.8445   -2.5556 O   0  0  0  0  0  0
   -1.9622   -4.8842   -2.7164 N   0  0  0  0  0  0
   -2.8879   -5.6884   -2.2107 C   0  0  0  0  0  0
   -3.1336   -6.8140   -2.6382 O   0  0  0  0  0  0
   -3.7423   -4.9967   -0.8724 S   0  0  0  0  0  0
   -2.5322    2.1561    0.0093 H   0  0  0  0  0  0
   -3.8341    0.0488   -0.1062 H   0  0  0  0  0  0
   -0.1907   -2.2261   -0.0708 H   0  0  0  0  0  0
   -0.0544    2.0902    0.0685 H   0  0  0  0  0  0
    1.8832   -1.8447    0.8928 H   0  0  0  0  0  0
    1.9381   -1.7897   -0.9018 H   0  0  0  0  0  0
    4.0096   -1.7062   -1.9442 H   0  0  0  0  0  0
    6.4544   -1.3174   -1.8895 H   0  0  0  0  0  0
    6.1386    0.1583    2.1462 H   0  0  0  0  0  0
   -3.6984   -2.4462    0.5667 H   0  0  0  0  0  0
   -1.3206   -5.1554   -3.5678 H   0  0  0  0  0  0
  1  6  1  0  0  0
  1  2  2  0  0  0
  1 25  1  0  0  0
  2  3  1  0  0  0
  2 26  1  0  0  0
  3  4  2  0  0  0
  3 17  1  0  0  0
  4  5  1  0  0  0
  4 27  1  0  0  0
  5  6  2  0  0  0
  5  7  1  0  0  0
  6 28  1  0  0  0
  7  8  1  0  0  0
  8  9  1  0  0  0
  8 29  1  0  0  0
  8 30  1  0  0  0
  9 14  1  0  0  0
  9 10  2  0  0  0
 10 11  1  0  0  0
 10 31  1  0  0  0
 11 12  2  0  0  0
 11 32  1  0  0  0
 12 13  1  0  0  0
 12 16  1  0  0  0
 13 14  2  0  0  0
 13 33  1  0  0  0
 14 15  1  0  0  0
 17 18  2  0  0  0
 17 34  1  0  0  0
 18 24  1  0  0  0
 18 19  1  0  0  0
 19 20  2  0  0  0
 19 21  1  0  0  0
 21 22  1  0  0  0
 21 35  1  0  0  0
 22 23  2  0  0  0
 22 24  1  0  0  0
M  END
> <s_m_source_file>
SM20.smi

> <i_m_source_file_index>
1

> <i_lp_mmshare_version>
40011

> <i_f3d_flags>
0

> <s_lp_Force_Field>
OPLS_2005

> <r_lp_Energy>
25.81424058022

> <b_lp_Chiralities_Consistent>
1

> <s_lp_Variant>
SM20-1

> <s_epik_input>
Tz1DKFMxKVtOSF1DKD1PKS9DMT1bQ0hdXGMyW2NIXVtjSF1bY0hdYyhbY0hdMilPW0NIMl1jM1tjSF1bY0hdYyhDbClbY0hdYzNDbA==

> <s_epik_cmdline>
J2VwaWtfYXBwJywgJy1pbWFlJywgJ1NNMjAuNS4xLm1hZScsICctb21hZScsICdTTTIwLmVwaWsuNS4xLm1hZScsICctcCcsICcwLjAwMDA0NTM5OTkyOTgnLCAnLXBoJywgJzUuMSc=

> <r_epik_Ionization_Penalty>
  0.0007

> <r_epik_Ionization_Penalty_Charging>
  0.0000

> <r_epik_Ionization_Penalty_Neutral>
  0.0007

> <r_epik_State_Penalty>
  0.0004

> <r_epik_Charging_Adjusted_Penalty>
0.000421267398398599

> <i_epik_Tot_Q>
0

> <i_epik_Tot_abs_Q>
0

$$$$
SM20
                    3D
 Structure written by MMmdl.
 34 36  0  0  1  0            999 V2000
   -2.0185    1.2063   -0.0133 C   0  0  0  0  0  0
   -2.7548    0.0094   -0.0786 C   0  0  0  0  0  0
   -2.0912   -1.2333   -0.1165 C   0  0  0  0  0  0
   -0.6798   -1.2640   -0.0643 C   0  0  0  0  0  0
    0.0729   -0.0643   -0.0028 C   0  0  0  0  0  0
   -0.6125    1.1666    0.0206 C   0  0  0  0  0  0
    1.4497   -0.0139    0.0367 O   0  0  0  0  0  0
    2.1711   -1.2385    0.0212 C   0  0  0  0  0  0
    3.6691   -0.9954    0.0745 C   0  0  0  0  0  0
    4.4637   -1.3024   -1.0511 C   0  0  0  0  0  0
    5.8540   -1.0817   -1.0230 C   0  0  0  0  0  0
    6.4593   -0.5533    0.1328 C   0  0  0  0  0  0
    5.6729   -0.2472    1.2598 C   0  0  0  0  0  0
    4.2810   -0.4665    1.2360 C   0  0  0  0  0  0
    3.3501   -0.0782    2.6401 Cl  0  0  0  0  0  0
    8.1625   -0.2805    0.1681 Cl  0  0  0  0  0  0
   -2.8921   -2.4671   -0.1812 C   0  0  0  0  0  0
   -2.7537   -3.5361   -0.9956 C   0  0  0  0  0  0
   -1.8299   -3.6829   -2.1321 C   0  0  0  0  0  0
   -1.0365   -2.8445   -2.5556 O   0  5  0  0  0  0
   -1.9622   -4.8842   -2.7164 N   0  0  0  0  0  0
   -2.8879   -5.6884   -2.2107 C   0  0  0  0  0  0
   -3.1336   -6.8140   -2.6382 O   0  0  0  0  0  0
   -3.7423   -4.9967   -0.8724 S   0  0  0  0  0  0
   -2.5322    2.1561    0.0093 H   0  0  0  0  0  0
   -3.8341    0.0488   -0.1062 H   0  0  0  0  0  0
   -0.1907   -2.2261   -0.0708 H   0  0  0  0  0  0
   -0.0544    2.0902    0.0685 H   0  0  0  0  0  0
    1.8832   -1.8447    0.8928 H   0  0  0  0  0  0
    1.9381   -1.7897   -0.9018 H   0  0  0  0  0  0
    4.0096   -1.7062   -1.9442 H   0  0  0  0  0  0
    6.4544   -1.3174   -1.8895 H   0  0  0  0  0  0
    6.1386    0.1583    2.1462 H   0  0  0  0  0  0
   -3.6984   -2.4462    0.5667 H   0  0  0  0  0  0
  1  6  1  0  0  0
  1  2  2  0  0  0
  1 25  1  0  0  0
  2  3  1  0  0  0
  2 26  1  0  0  0
  3  4  2  0  0  0
  3 17  1  0  0  0
  4  5  1  0  0  0
  4 27  1  0  0  0
  5  6  2  0  0  0
  5  7  1  0  0  0
  6 28  1  0  0  0
  7  8  1  0  0  0
  8  9  1  0  0  0
  8 29  1  0  0  0
  8 30  1  0  0  0
  9 14  1  0  0  0
  9 10  2  0  0  0
 10 11  1  0  0  0
 10 31  1  0  0  0
 11 12  2  0  0  0
 11 32  1  0  0  0
 12 13  1  0  0  0
 12 16  1  0  0  0
 13 14  2  0  0  0
 13 33  1  0  0  0
 14 15  1  0  0  0
 17 18  2  0  0  0
 17 34  1  0  0  0
 18 24  1  0  0  0
 18 19  1  0  0  0
 19 20  1  0  0  0
 19 21  2  0  0  0
 21 22  1  0  0  0
 22 23  2  0  0  0
 22 24  1  0  0  0
M  CHG  1  20  -1
M  END
> <s_m_source_file>
SM20.smi

> <i_m_source_file_index>
1

> <i_lp_mmshare_version>
40011

> <i_f3d_flags>
0

> <s_lp_Force_Field>
OPLS_2005

> <r_lp_Energy>
25.81424058022

> <b_lp_Chiralities_Consistent>
1

> <s_lp_Variant>
SM20-1

> <s_epik_input>
Tz1DKFMxKVtOSF1DKD1PKS9DMT1bQ0hdXGMyW2NIXVtjSF1bY0hdYyhbY0hdMilPW0NIMl1jM1tjSF1bY0hdYyhDbClbY0hdYzNDbA==

> <s_epik_cmdline>
J2VwaWtfYXBwJywgJy1pbWFlJywgJ1NNMjAuNS4xLm1hZScsICctb21hZScsICdTTTIwLmVwaWsuNS4xLm1hZScsICctcCcsICcwLjAwMDA0NTM5OTkyOTgnLCAnLXBoJywgJzUuMSc=

> <r_epik_Ionization_Penalty>
  4.0253

> <r_epik_Ionization_Penalty_Charging>
  4.0253

> <r_epik_Ionization_Penalty_Neutral>
  0.0000

> <r_epik_State_Penalty>
  4.2950

> <r_epik_Charging_Adjusted_Penalty>
8.32032909812853

> <i_epik_Tot_Q>
-1

> <i_epik_Tot_abs_Q>
1

$$$$
