SM17
                    3D
 Structure written by MMmdl.
 30 32  0  0  1  0            999 V2000
   -1.2698    4.2922    0.3044 C   0  0  0  0  0  0
   -0.5991    3.6098    1.3378 C   0  0  0  0  0  0
   -0.3285    2.2331    1.2137 C   0  0  0  0  0  0
   -0.7279    1.5342    0.0550 C   0  0  0  0  0  0
   -1.3972    2.2214   -0.9796 C   0  0  0  0  0  0
   -1.6680    3.5981   -0.8545 C   0  0  0  0  0  0
   -0.4308    0.0546   -0.0820 C   0  0  0  0  0  0
    1.1895   -0.1702   -0.8703 S   0  0  0  0  0  0
    1.2444   -1.9302   -0.9112 C   0  0  0  0  0  0
    0.3473   -2.8145   -0.4702 N   0  0  0  0  0  0
    0.8788   -4.0532   -0.7481 N   0  0  0  0  0  0
    2.0591   -3.8292   -1.3369 C   0  0  0  0  0  0
    2.3419   -2.5043   -1.4653 O   0  0  0  0  0  0
    3.0261   -4.8067   -1.8316 C   0  0  0  0  0  0
    4.2471   -4.4019   -2.4165 C   0  0  0  0  0  0
    5.1380   -5.3927   -2.8747 C   0  0  0  0  0  0
    4.8870   -6.7160   -2.7854 N   0  0  0  0  0  0
    3.7193   -7.0990   -2.2270 C   0  0  0  0  0  0
    2.7604   -6.1906   -1.7369 C   0  0  0  0  0  0
   -1.4768    5.3479    0.3998 H   0  0  0  0  0  0
   -0.2911    4.1423    2.2255 H   0  0  0  0  0  0
    0.1887    1.7159    2.0088 H   0  0  0  0  0  0
   -1.7024    1.6950   -1.8722 H   0  0  0  0  0  0
   -2.1799    4.1217   -1.6486 H   0  0  0  0  0  0
   -0.4204   -0.4111    0.9145 H   0  0  0  0  0  0
   -1.2072   -0.4196   -0.7002 H   0  0  0  0  0  0
    4.5062   -3.3581   -2.5169 H   0  0  0  0  0  0
    6.0788   -5.1140   -3.3257 H   0  0  0  0  0  0
    3.5429   -8.1628   -2.1679 H   0  0  0  0  0  0
    1.8429   -6.5561   -1.2992 H   0  0  0  0  0  0
  1  6  1  0  0  0
  1  2  2  0  0  0
  1 20  1  0  0  0
  2  3  1  0  0  0
  2 21  1  0  0  0
  3  4  2  0  0  0
  3 22  1  0  0  0
  4  5  1  0  0  0
  4  7  1  0  0  0
  5  6  2  0  0  0
  5 23  1  0  0  0
  6 24  1  0  0  0
  7  8  1  0  0  0
  7 25  1  0  0  0
  7 26  1  0  0  0
  8  9  1  0  0  0
  9 13  1  0  0  0
  9 10  2  0  0  0
 10 11  1  0  0  0
 11 12  2  0  0  0
 12 13  1  0  0  0
 12 14  1  0  0  0
 14 19  1  0  0  0
 14 15  2  0  0  0
 15 16  1  0  0  0
 15 27  1  0  0  0
 16 17  2  0  0  0
 16 28  1  0  0  0
 17 18  1  0  0  0
 18 19  2  0  0  0
 18 29  1  0  0  0
 19 30  1  0  0  0
M  END
> <s_m_source_file>
SM17.smi

> <i_m_source_file_index>
1

> <i_lp_mmshare_version>
40011

> <i_f3d_flags>
0

> <s_lp_Force_Field>
OPLS_2005

> <r_lp_Energy>
6.52321519185474

> <b_lp_Chiralities_Consistent>
1

> <s_lp_Variant>
SM17-1

> <s_epik_input>
W2NIXTFbY0hdW2NIXVtjSF1bY0hdYzFbQ0gyXVNjMm5uYyhvMiktYzNbY0hdW2NIXW5bY0hdW2NIXTM=

> <s_epik_cmdline>
J2VwaWtfYXBwJywgJy1pbWFlJywgJ1NNMTcuMTEuNS5tYWUnLCAnLW9tYWUnLCAnU00xNy5lcGlrLjExLjUubWFlJywgJy1wJywgJzAuMDAwMDQ1Mzk5OTI5OCcsICctcGgnLCAnMTEuNSc=

> <r_lp_tautomer_probability>
1

> <r_epik_Ionization_Penalty>
  0.0000

> <r_epik_Ionization_Penalty_Charging>
  0.0000

> <r_epik_Ionization_Penalty_Neutral>
  0.0000

> <r_epik_State_Penalty>
 -0.0000

> <r_epik_Charging_Adjusted_Penalty>
0

> <i_epik_Tot_Q>
0

> <i_epik_Tot_abs_Q>
0

$$$$
