SM21
                    3D
 Structure written by MMmdl.
 34 36  0  0  1  0            999 V2000
   -2.9655    2.2465   -0.1800 C   0  0  0  0  0  0
   -2.0944    1.1434   -0.0908 C   0  0  0  0  0  0
   -0.7453    1.3229    0.2810 C   0  0  0  0  0  0
   -0.2874    2.6232    0.5958 C   0  0  0  0  0  0
   -1.1572    3.7272    0.5066 C   0  0  0  0  0  0
   -2.4961    3.5403    0.1145 C   0  0  0  0  0  0
   -0.5231    5.4715    0.9255 Br  0  0  0  0  0  0
    0.0761    0.1879    0.3633 N   0  0  0  0  0  0
    1.4459    0.0594    0.0830 C   0  0  0  0  0  0
    2.0759   -1.1857    0.2944 C   0  0  0  0  0  0
    3.4426   -1.2729   -0.0374 C   0  0  0  0  0  0
    4.1182   -0.2174   -0.5407 N   0  0  0  0  0  0
    3.4340    0.9175   -0.7025 C   0  0  0  0  0  0
    2.1394    1.1075   -0.4218 N   0  0  0  0  0  0
    4.1500    1.9689   -1.2440 N   0  0  0  0  0  0
    3.8028    3.2773   -1.6019 C   0  0  0  0  0  0
    3.0379    4.0975   -0.7433 C   0  0  0  0  0  0
    2.7154    5.4150   -1.1216 C   0  0  0  0  0  0
    3.1591    5.9223   -2.3575 C   0  0  0  0  0  0
    3.9309    5.1123   -3.2126 C   0  0  0  0  0  0
    4.2556    3.7951   -2.8330 C   0  0  0  0  0  0
    4.5375    5.7979   -4.8809 Br  0  0  0  0  0  0
    1.4021   -2.2526    0.7883 F   0  0  0  0  0  0
   -3.9943    2.0996   -0.4738 H   0  0  0  0  0  0
   -2.4671    0.1553   -0.3191 H   0  0  0  0  0  0
    0.7270    2.7870    0.9243 H   0  0  0  0  0  0
   -3.1643    4.3860    0.0470 H   0  0  0  0  0  0
   -0.3466   -0.7747    0.6870 H   0  0  0  0  0  0
    3.9933   -2.1925    0.0944 H   0  0  0  0  0  0
    5.2185    1.8458   -1.4745 H   0  0  0  0  0  0
    2.7042    3.7262    0.2138 H   0  0  0  0  0  0
    2.1313    6.0386   -0.4616 H   0  0  0  0  0  0
    2.9111    6.9331   -2.6460 H   0  0  0  0  0  0
    4.8496    3.1811   -3.4945 H   0  0  0  0  0  0
  1  6  1  0  0  0
  1  2  2  0  0  0
  1 24  1  0  0  0
  2  3  1  0  0  0
  2 25  1  0  0  0
  3  4  2  0  0  0
  3  8  1  0  0  0
  4  5  1  0  0  0
  4 26  1  0  0  0
  5  6  2  0  0  0
  5  7  1  0  0  0
  6 27  1  0  0  0
  8  9  1  0  0  0
  8 28  1  0  0  0
  9 14  1  0  0  0
  9 10  2  0  0  0
 10 11  1  0  0  0
 10 23  1  0  0  0
 11 12  2  0  0  0
 11 29  1  0  0  0
 12 13  1  0  0  0
 13 14  2  0  0  0
 13 15  1  0  0  0
 15 16  1  0  0  0
 15 30  1  0  0  0
 16 21  1  0  0  0
 16 17  2  0  0  0
 17 18  1  0  0  0
 17 31  1  0  0  0
 18 19  2  0  0  0
 18 32  1  0  0  0
 19 20  1  0  0  0
 19 33  1  0  0  0
 20 21  2  0  0  0
 20 22  1  0  0  0
 21 34  1  0  0  0
M  END
> <s_m_source_file>
SM21.smi

> <i_m_source_file_index>
1

> <i_lp_mmshare_version>
40011

> <i_f3d_flags>
0

> <s_lp_Force_Field>
OPLS_2005

> <r_lp_Energy>
11.7491412764591

> <b_lp_Chiralities_Consistent>
1

> <s_lp_Variant>
SM21-1

> <s_epik_input>
W2NIXTFjKEJyKVtjSF1bY0hdW2NIXWMxW05IXWMyYyhGKVtjSF1uYyhuMilbTkhdYzNbY0hdW2NIXVtjSF1jKEJyKVtjSF0z

> <s_epik_cmdline>
J2VwaWtfYXBwJywgJy1pbWFlJywgJ1NNMjEuOS4xLm1hZScsICctb21hZScsICdTTTIxLmVwaWsuOS4xLm1hZScsICctcCcsICcwLjAwMDA0NTM5OTkyOTgnLCAnLXBoJywgJzkuMSc=

> <r_lp_tautomer_probability>
0.999999624730965

> <r_epik_Ionization_Penalty>
  0.0002

> <r_epik_Ionization_Penalty_Charging>
  0.0000

> <r_epik_Ionization_Penalty_Neutral>
  0.0002

> <r_epik_State_Penalty>
  0.0001

> <r_epik_Charging_Adjusted_Penalty>
9.05505729044817e-05

> <i_epik_Tot_Q>
0

> <i_epik_Tot_abs_Q>
0

$$$$
SM21
                    3D
 Structure written by MMmdl.
 33 35  0  0  1  0            999 V2000
   -2.9655    2.2465   -0.1800 C   0  0  0  0  0  0
   -2.0944    1.1434   -0.0908 C   0  0  0  0  0  0
   -0.7453    1.3229    0.2810 C   0  0  0  0  0  0
   -0.2874    2.6232    0.5958 C   0  0  0  0  0  0
   -1.1572    3.7272    0.5066 C   0  0  0  0  0  0
   -2.4961    3.5403    0.1145 C   0  0  0  0  0  0
   -0.5231    5.4715    0.9255 Br  0  0  0  0  0  0
    0.0761    0.1879    0.3633 N   0  5  0  0  0  0
    1.4459    0.0594    0.0830 C   0  0  0  0  0  0
    2.0759   -1.1857    0.2944 C   0  0  0  0  0  0
    3.4426   -1.2729   -0.0374 C   0  0  0  0  0  0
    4.1182   -0.2174   -0.5407 N   0  0  0  0  0  0
    3.4340    0.9175   -0.7025 C   0  0  0  0  0  0
    2.1394    1.1075   -0.4218 N   0  0  0  0  0  0
    4.1500    1.9689   -1.2440 N   0  0  0  0  0  0
    3.8028    3.2773   -1.6019 C   0  0  0  0  0  0
    3.0379    4.0975   -0.7433 C   0  0  0  0  0  0
    2.7154    5.4150   -1.1216 C   0  0  0  0  0  0
    3.1591    5.9223   -2.3575 C   0  0  0  0  0  0
    3.9309    5.1123   -3.2126 C   0  0  0  0  0  0
    4.2556    3.7951   -2.8330 C   0  0  0  0  0  0
    4.5375    5.7979   -4.8809 Br  0  0  0  0  0  0
    1.4021   -2.2526    0.7883 F   0  0  0  0  0  0
   -3.9943    2.0996   -0.4738 H   0  0  0  0  0  0
   -2.4671    0.1553   -0.3191 H   0  0  0  0  0  0
    0.7270    2.7870    0.9243 H   0  0  0  0  0  0
   -3.1643    4.3860    0.0470 H   0  0  0  0  0  0
    3.9933   -2.1925    0.0944 H   0  0  0  0  0  0
    5.2185    1.8458   -1.4745 H   0  0  0  0  0  0
    2.7042    3.7262    0.2138 H   0  0  0  0  0  0
    2.1313    6.0386   -0.4616 H   0  0  0  0  0  0
    2.9111    6.9331   -2.6460 H   0  0  0  0  0  0
    4.8496    3.1811   -3.4945 H   0  0  0  0  0  0
  1  6  1  0  0  0
  1  2  2  0  0  0
  1 24  1  0  0  0
  2  3  1  0  0  0
  2 25  1  0  0  0
  3  4  2  0  0  0
  3  8  1  0  0  0
  4  5  1  0  0  0
  4 26  1  0  0  0
  5  6  2  0  0  0
  5  7  1  0  0  0
  6 27  1  0  0  0
  8  9  1  0  0  0
  9 14  1  0  0  0
  9 10  2  0  0  0
 10 11  1  0  0  0
 10 23  1  0  0  0
 11 12  2  0  0  0
 11 28  1  0  0  0
 12 13  1  0  0  0
 13 14  2  0  0  0
 13 15  1  0  0  0
 15 16  1  0  0  0
 15 29  1  0  0  0
 16 21  1  0  0  0
 16 17  2  0  0  0
 17 18  1  0  0  0
 17 30  1  0  0  0
 18 19  2  0  0  0
 18 31  1  0  0  0
 19 20  1  0  0  0
 19 32  1  0  0  0
 20 21  2  0  0  0
 20 22  1  0  0  0
 21 33  1  0  0  0
M  CHG  1   8  -1
M  END
> <s_m_source_file>
SM21.smi

> <i_m_source_file_index>
1

> <i_lp_mmshare_version>
40011

> <i_f3d_flags>
0

> <s_lp_Force_Field>
OPLS_2005

> <r_lp_Energy>
11.7491412764591

> <b_lp_Chiralities_Consistent>
1

> <s_lp_Variant>
SM21-1

> <s_epik_input>
W2NIXTFjKEJyKVtjSF1bY0hdW2NIXWMxW05IXWMyYyhGKVtjSF1uYyhuMilbTkhdYzNbY0hdW2NIXVtjSF1jKEJyKVtjSF0z

> <s_epik_cmdline>
J2VwaWtfYXBwJywgJy1pbWFlJywgJ1NNMjEuOS4xLm1hZScsICctb21hZScsICdTTTIxLmVwaWsuOS4xLm1hZScsICctcCcsICcwLjAwMDA0NTM5OTkyOTgnLCAnLXBoJywgJzkuMSc=

> <r_lp_tautomer_probability>
0.960708559143655

> <r_epik_Ionization_Penalty>
  4.8786

> <r_epik_Ionization_Penalty_Charging>
  4.8786

> <r_epik_Ionization_Penalty_Neutral>
  0.0001

> <r_epik_State_Penalty>
  5.2057

> <r_epik_Charging_Adjusted_Penalty>
10.0842787069998

> <i_epik_Tot_Q>
-1

> <i_epik_Tot_abs_Q>
1

$$$$
