SM16
                    3D
 Structure written by MMmdl.
 25 26  0  0  1  0            999 V2000
   -2.8400    0.0231    0.0237 C   0  0  0  0  0  0
   -2.1987   -1.1803   -0.3155 C   0  0  0  0  0  0
   -0.7925   -1.2629   -0.3217 C   0  0  0  0  0  0
   -0.0082   -0.1278    0.0190 C   0  0  0  0  0  0
   -0.6662    1.0887    0.3511 C   0  0  0  0  0  0
   -2.0735    1.1533    0.3549 C   0  0  0  0  0  0
    0.2055    2.5372    0.7293 Cl  0  0  0  0  0  0
    1.4937   -0.2130    0.0015 C   0  0  0  0  0  0
    2.0849   -0.5313   -1.0300 O   0  0  0  0  0  0
    2.0800    0.0329    1.1886 N   0  0  0  0  0  0
    3.4630    0.0516    1.5136 C   0  0  0  0  0  0
    3.8173   -0.0553    2.8744 C   0  0  0  0  0  0
    5.1815   -0.0226    3.2258 C   0  0  0  0  0  0
    6.1764    0.1153    2.3245 N   0  0  0  0  0  0
    5.8349    0.2317    1.0237 C   0  0  0  0  0  0
    4.5024    0.2109    0.5655 C   0  0  0  0  0  0
   -0.0751   -2.7866   -0.7253 Cl  0  0  0  0  0  0
   -3.9185    0.0800    0.0265 H   0  0  0  0  0  0
   -2.7907   -2.0474   -0.5695 H   0  0  0  0  0  0
   -2.5701    2.0791    0.6060 H   0  0  0  0  0  0
    1.4627    0.2574    2.0709 H   0  0  0  0  0  0
    3.0617   -0.1653    3.6387 H   0  0  0  0  0  0
    5.4808   -0.1077    4.2600 H   0  0  0  0  0  0
    6.6495    0.3520    0.3249 H   0  0  0  0  0  0
    4.3095    0.3291   -0.4892 H   0  0  0  0  0  0
  1  6  1  0  0  0
  1  2  2  0  0  0
  1 18  1  0  0  0
  2  3  1  0  0  0
  2 19  1  0  0  0
  3  4  2  0  0  0
  3 17  1  0  0  0
  4  5  1  0  0  0
  4  8  1  0  0  0
  5  6  2  0  0  0
  5  7  1  0  0  0
  6 20  1  0  0  0
  8  9  2  0  0  0
  8 10  1  0  0  0
 10 11  1  0  0  0
 10 21  1  0  0  0
 11 16  1  0  0  0
 11 12  2  0  0  0
 12 13  1  0  0  0
 12 22  1  0  0  0
 13 14  2  0  0  0
 13 23  1  0  0  0
 14 15  1  0  0  0
 15 16  2  0  0  0
 15 24  1  0  0  0
 16 25  1  0  0  0
M  END
> <s_m_source_file>
SM16.smi

> <i_m_source_file_index>
1

> <i_lp_mmshare_version>
40011

> <i_f3d_flags>
0

> <s_lp_Force_Field>
OPLS_2005

> <r_lp_Energy>
20.8925575022688

> <b_lp_Chiralities_Consistent>
1

> <s_lp_Variant>
SM16-1

> <s_epik_input>
Q2xjMVtjSF1bY0hdW2NIXWMoQ2wpYzFDKD1PKVtOSF1jMltjSF1bY0hdbltjSF1bY0hdMg==

> <s_epik_cmdline>
J2VwaWtfYXBwJywgJy1pbWFlJywgJ1NNMTYuOS40Lm1hZScsICctb21hZScsICdTTTE2LmVwaWsuOS40Lm1hZScsICctcCcsICcwLjAwMDA0NTM5OTkyOTgnLCAnLXBoJywgJzkuNCc=

> <r_epik_Ionization_Penalty>
  0.1811

> <r_epik_Ionization_Penalty_Charging>
  0.0000

> <r_epik_Ionization_Penalty_Neutral>
  0.1811

> <r_epik_State_Penalty>
  0.1091

> <r_epik_Charging_Adjusted_Penalty>
0.109052144595763

> <i_epik_Tot_Q>
0

> <i_epik_Tot_abs_Q>
0

$$$$
SM16
                    3D
 Structure written by MMmdl.
 24 25  0  0  1  0            999 V2000
   -2.8400    0.0231    0.0237 C   0  0  0  0  0  0
   -2.1987   -1.1803   -0.3155 C   0  0  0  0  0  0
   -0.7925   -1.2629   -0.3217 C   0  0  0  0  0  0
   -0.0082   -0.1278    0.0190 C   0  0  0  0  0  0
   -0.6662    1.0887    0.3511 C   0  0  0  0  0  0
   -2.0735    1.1533    0.3549 C   0  0  0  0  0  0
    0.2055    2.5372    0.7293 Cl  0  0  0  0  0  0
    1.4937   -0.2130    0.0015 C   0  0  0  0  0  0
    2.0849   -0.5313   -1.0300 O   0  5  0  0  0  0
    2.0800    0.0329    1.1886 N   0  0  0  0  0  0
    3.4630    0.0516    1.5136 C   0  0  0  0  0  0
    3.8173   -0.0553    2.8744 C   0  0  0  0  0  0
    5.1815   -0.0226    3.2258 C   0  0  0  0  0  0
    6.1764    0.1153    2.3245 N   0  0  0  0  0  0
    5.8349    0.2317    1.0237 C   0  0  0  0  0  0
    4.5024    0.2109    0.5655 C   0  0  0  0  0  0
   -0.0751   -2.7866   -0.7253 Cl  0  0  0  0  0  0
   -3.9185    0.0800    0.0265 H   0  0  0  0  0  0
   -2.7907   -2.0474   -0.5695 H   0  0  0  0  0  0
   -2.5701    2.0791    0.6060 H   0  0  0  0  0  0
    3.0617   -0.1653    3.6387 H   0  0  0  0  0  0
    5.4808   -0.1077    4.2600 H   0  0  0  0  0  0
    6.6495    0.3520    0.3249 H   0  0  0  0  0  0
    4.3095    0.3291   -0.4892 H   0  0  0  0  0  0
  1  6  1  0  0  0
  1  2  2  0  0  0
  1 18  1  0  0  0
  2  3  1  0  0  0
  2 19  1  0  0  0
  3  4  2  0  0  0
  3 17  1  0  0  0
  4  5  1  0  0  0
  4  8  1  0  0  0
  5  6  2  0  0  0
  5  7  1  0  0  0
  6 20  1  0  0  0
  8  9  1  0  0  0
  8 10  2  0  0  0
 10 11  1  0  0  0
 11 16  1  0  0  0
 11 12  2  0  0  0
 12 13  1  0  0  0
 12 21  1  0  0  0
 13 14  2  0  0  0
 13 22  1  0  0  0
 14 15  1  0  0  0
 15 16  2  0  0  0
 15 23  1  0  0  0
 16 24  1  0  0  0
M  CHG  1   9  -1
M  END
> <s_m_source_file>
SM16.smi

> <i_m_source_file_index>
1

> <i_lp_mmshare_version>
40011

> <i_f3d_flags>
0

> <s_lp_Force_Field>
OPLS_2005

> <r_lp_Energy>
20.8925575022688

> <b_lp_Chiralities_Consistent>
1

> <s_lp_Variant>
SM16-1

> <s_epik_input>
Q2xjMVtjSF1bY0hdW2NIXWMoQ2wpYzFDKD1PKVtOSF1jMltjSF1bY0hdbltjSF1bY0hdMg==

> <s_epik_cmdline>
J2VwaWtfYXBwJywgJy1pbWFlJywgJ1NNMTYuOS40Lm1hZScsICctb21hZScsICdTTTE2LmVwaWsuOS40Lm1hZScsICctcCcsICcwLjAwMDA0NTM5OTkyOTgnLCAnLXBoJywgJzkuNCc=

> <r_epik_Ionization_Penalty>
  0.8014

> <r_epik_Ionization_Penalty_Charging>
  0.7904

> <r_epik_Ionization_Penalty_Neutral>
  0.0109

> <r_epik_State_Penalty>
  1.4687

> <r_epik_Charging_Adjusted_Penalty>
2.25918273025144

> <i_epik_Tot_Q>
-1

> <i_epik_Tot_abs_Q>
1

$$$$
SM16
                    3D
 Structure written by MMmdl.
 24 25  0  0  1  0            999 V2000
   -2.8400    0.0231    0.0237 C   0  0  0  0  0  0
   -2.1987   -1.1803   -0.3155 C   0  0  0  0  0  0
   -0.7925   -1.2629   -0.3217 C   0  0  0  0  0  0
   -0.0082   -0.1278    0.0190 C   0  0  0  0  0  0
   -0.6662    1.0887    0.3511 C   0  0  0  0  0  0
   -2.0735    1.1533    0.3549 C   0  0  0  0  0  0
    0.2055    2.5372    0.7293 Cl  0  0  0  0  0  0
    1.4937   -0.2130    0.0015 C   0  0  0  0  0  0
    2.0849   -0.5313   -1.0300 O   0  5  0  0  0  0
    2.0800    0.0329    1.1886 N   0  0  0  0  0  0
    3.4630    0.0516    1.5136 C   0  0  0  0  0  0
    3.8173   -0.0553    2.8744 C   0  0  0  0  0  0
    5.1815   -0.0226    3.2258 C   0  0  0  0  0  0
    6.1764    0.1153    2.3245 N   0  0  0  0  0  0
    5.8349    0.2317    1.0237 C   0  0  0  0  0  0
    4.5024    0.2109    0.5655 C   0  0  0  0  0  0
   -0.0751   -2.7866   -0.7253 Cl  0  0  0  0  0  0
   -3.9185    0.0800    0.0265 H   0  0  0  0  0  0
   -2.7907   -2.0474   -0.5695 H   0  0  0  0  0  0
   -2.5701    2.0791    0.6060 H   0  0  0  0  0  0
    3.0617   -0.1653    3.6387 H   0  0  0  0  0  0
    5.4808   -0.1077    4.2600 H   0  0  0  0  0  0
    6.6495    0.3520    0.3249 H   0  0  0  0  0  0
    4.3095    0.3291   -0.4892 H   0  0  0  0  0  0
  1  6  1  0  0  0
  1  2  2  0  0  0
  1 18  1  0  0  0
  2  3  1  0  0  0
  2 19  1  0  0  0
  3  4  2  0  0  0
  3 17  1  0  0  0
  4  5  1  0  0  0
  4  8  1  0  0  0
  5  6  2  0  0  0
  5  7  1  0  0  0
  6 20  1  0  0  0
  8  9  1  0  0  0
  8 10  2  0  0  0
 10 11  1  0  0  0
 11 16  1  0  0  0
 11 12  2  0  0  0
 12 13  1  0  0  0
 12 21  1  0  0  0
 13 14  2  0  0  0
 13 22  1  0  0  0
 14 15  1  0  0  0
 15 16  2  0  0  0
 15 23  1  0  0  0
 16 24  1  0  0  0
M  CHG  1   9  -1
M  END
> <s_m_source_file>
SM16.smi

> <i_m_source_file_index>
1

> <i_lp_mmshare_version>
40011

> <i_f3d_flags>
0

> <s_lp_Force_Field>
OPLS_2005

> <r_lp_Energy>
20.8925575022688

> <b_lp_Chiralities_Consistent>
1

> <s_lp_Variant>
SM16-1

> <s_epik_input>
Q2xjMVtjSF1bY0hdW2NIXWMoQ2wpYzFDKD1PKVtOSF1jMltjSF1bY0hdbltjSF1bY0hdMg==

> <s_epik_cmdline>
J2VwaWtfYXBwJywgJy1pbWFlJywgJ1NNMTYuOS40Lm1hZScsICctb21hZScsICdTTTE2LmVwaWsuOS40Lm1hZScsICctcCcsICcwLjAwMDA0NTM5OTkyOTgnLCAnLXBoJywgJzkuNCc=

> <r_epik_Ionization_Penalty>
  0.8014

> <r_epik_Ionization_Penalty_Charging>
  0.7904

> <r_epik_Ionization_Penalty_Neutral>
  0.0109

> <r_epik_State_Penalty>
  1.4687

> <r_epik_Charging_Adjusted_Penalty>
2.25918273025144

> <i_epik_Tot_Q>
-1

> <i_epik_Tot_abs_Q>
1

$$$$
SM16
                    3D
 Structure written by MMmdl.
 25 26  0  0  1  0            999 V2000
   -2.8400    0.0231    0.0237 C   0  0  0  0  0  0
   -2.1987   -1.1803   -0.3155 C   0  0  0  0  0  0
   -0.7925   -1.2629   -0.3217 C   0  0  0  0  0  0
   -0.0082   -0.1278    0.0190 C   0  0  0  0  0  0
   -0.6662    1.0887    0.3511 C   0  0  0  0  0  0
   -2.0735    1.1533    0.3549 C   0  0  0  0  0  0
    0.2055    2.5372    0.7293 Cl  0  0  0  0  0  0
    1.4937   -0.2130    0.0015 C   0  0  0  0  0  0
    2.0849   -0.5313   -1.0300 O   0  0  0  0  0  0
    2.0800    0.0329    1.1886 N   0  0  0  0  0  0
    3.4630    0.0516    1.5136 C   0  0  0  0  0  0
    3.8173   -0.0553    2.8744 C   0  0  0  0  0  0
    5.1815   -0.0226    3.2258 C   0  0  0  0  0  0
    6.1764    0.1153    2.3245 N   0  0  0  0  0  0
    5.8349    0.2317    1.0237 C   0  0  0  0  0  0
    4.5024    0.2109    0.5655 C   0  0  0  0  0  0
   -0.0751   -2.7866   -0.7253 Cl  0  0  0  0  0  0
   -3.9185    0.0800    0.0265 H   0  0  0  0  0  0
   -2.7907   -2.0474   -0.5695 H   0  0  0  0  0  0
   -2.5701    2.0791    0.6060 H   0  0  0  0  0  0
    3.0617   -0.1653    3.6387 H   0  0  0  0  0  0
    5.4808   -0.1077    4.2600 H   0  0  0  0  0  0
    6.6495    0.3520    0.3249 H   0  0  0  0  0  0
    4.3095    0.3291   -0.4892 H   0  0  0  0  0  0
    7.2240    0.1300    2.6596 H   0  0  0  0  0  0
  1  6  1  0  0  0
  1  2  2  0  0  0
  1 18  1  0  0  0
  2  3  1  0  0  0
  2 19  1  0  0  0
  3  4  2  0  0  0
  3 17  1  0  0  0
  4  5  1  0  0  0
  4  8  1  0  0  0
  5  6  2  0  0  0
  5  7  1  0  0  0
  6 20  1  0  0  0
  8  9  2  0  0  0
  8 10  1  0  0  0
 10 11  2  0  0  0
 11 16  1  0  0  0
 11 12  1  0  0  0
 12 13  2  0  0  0
 12 21  1  0  0  0
 13 14  1  0  0  0
 13 22  1  0  0  0
 14 15  1  0  0  0
 14 25  1  0  0  0
 15 16  2  0  0  0
 15 23  1  0  0  0
 16 24  1  0  0  0
M  END
> <s_m_source_file>
SM16.smi

> <i_m_source_file_index>
1

> <i_lp_mmshare_version>
40011

> <i_f3d_flags>
0

> <s_lp_Force_Field>
OPLS_2005

> <r_lp_Energy>
20.8925575022688

> <b_lp_Chiralities_Consistent>
1

> <s_lp_Variant>
SM16-1

> <s_epik_input>
Q2xjMVtjSF1bY0hdW2NIXWMoQ2wpYzFDKD1PKVtOSF1jMltjSF1bY0hdbltjSF1bY0hdMg==

> <s_epik_cmdline>
J2VwaWtfYXBwJywgJy1pbWFlJywgJ1NNMTYuOS40Lm1hZScsICctb21hZScsICdTTTE2LmVwaWsuOS40Lm1hZScsICctcCcsICcwLjAwMDA0NTM5OTkyOTgnLCAnLXBoJywgJzkuNCc=

> <r_epik_Ionization_Penalty>
  3.1293

> <r_epik_Ionization_Penalty_Charging>
  3.1293

> <r_epik_Ionization_Penalty_Neutral>
  0.0000

> <r_epik_State_Penalty>
  4.6963

> <r_epik_Charging_Adjusted_Penalty>
7.82556938080749

> <i_epik_Tot_Q>
0

> <i_epik_Tot_abs_Q>
0

$$$$
SM16
                    3D
 Structure written by MMmdl.
 26 27  0  0  1  0            999 V2000
   -2.8400    0.0231    0.0237 C   0  0  0  0  0  0
   -2.1987   -1.1803   -0.3155 C   0  0  0  0  0  0
   -0.7925   -1.2629   -0.3217 C   0  0  0  0  0  0
   -0.0082   -0.1278    0.0190 C   0  0  0  0  0  0
   -0.6662    1.0887    0.3511 C   0  0  0  0  0  0
   -2.0735    1.1533    0.3549 C   0  0  0  0  0  0
    0.2055    2.5372    0.7293 Cl  0  0  0  0  0  0
    1.4937   -0.2130    0.0015 C   0  0  0  0  0  0
    2.0849   -0.5313   -1.0300 O   0  0  0  0  0  0
    2.0800    0.0329    1.1886 N   0  0  0  0  0  0
    3.4630    0.0516    1.5136 C   0  0  0  0  0  0
    3.8173   -0.0553    2.8744 C   0  0  0  0  0  0
    5.1815   -0.0226    3.2258 C   0  0  0  0  0  0
    6.1764    0.1153    2.3245 N   0  3  0  0  0  0
    5.8349    0.2317    1.0237 C   0  0  0  0  0  0
    4.5024    0.2109    0.5655 C   0  0  0  0  0  0
   -0.0751   -2.7866   -0.7253 Cl  0  0  0  0  0  0
   -3.9185    0.0800    0.0265 H   0  0  0  0  0  0
   -2.7907   -2.0474   -0.5695 H   0  0  0  0  0  0
   -2.5701    2.0791    0.6060 H   0  0  0  0  0  0
    1.4627    0.2574    2.0709 H   0  0  0  0  0  0
    3.0617   -0.1653    3.6387 H   0  0  0  0  0  0
    5.4808   -0.1077    4.2600 H   0  0  0  0  0  0
    6.6495    0.3520    0.3249 H   0  0  0  0  0  0
    4.3095    0.3291   -0.4892 H   0  0  0  0  0  0
    7.2240    0.1300    2.6596 H   0  0  0  0  0  0
  1  6  1  0  0  0
  1  2  2  0  0  0
  1 18  1  0  0  0
  2  3  1  0  0  0
  2 19  1  0  0  0
  3  4  2  0  0  0
  3 17  1  0  0  0
  4  5  1  0  0  0
  4  8  1  0  0  0
  5  6  2  0  0  0
  5  7  1  0  0  0
  6 20  1  0  0  0
  8  9  2  0  0  0
  8 10  1  0  0  0
 10 11  1  0  0  0
 10 21  1  0  0  0
 11 16  1  0  0  0
 11 12  2  0  0  0
 12 13  1  0  0  0
 12 22  1  0  0  0
 13 14  2  0  0  0
 13 23  1  0  0  0
 14 15  1  0  0  0
 14 26  1  0  0  0
 15 16  2  0  0  0
 15 24  1  0  0  0
 16 25  1  0  0  0
M  CHG  1  14   1
M  END
> <s_m_source_file>
SM16.smi

> <i_m_source_file_index>
1

> <i_lp_mmshare_version>
40011

> <i_f3d_flags>
0

> <s_lp_Force_Field>
OPLS_2005

> <r_lp_Energy>
20.8925575022688

> <b_lp_Chiralities_Consistent>
1

> <s_lp_Variant>
SM16-1

> <s_epik_input>
Q2xjMVtjSF1bY0hdW2NIXWMoQ2wpYzFDKD1PKVtOSF1jMltjSF1bY0hdbltjSF1bY0hdMg==

> <s_epik_cmdline>
J2VwaWtfYXBwJywgJy1pbWFlJywgJ1NNMTYuOS40Lm1hZScsICctb21hZScsICdTTTE2LmVwaWsuOS40Lm1hZScsICctcCcsICcwLjAwMDA0NTM5OTkyOTgnLCAnLXBoJywgJzkuNCc=

> <r_epik_Ionization_Penalty>
  6.5858

> <r_epik_Ionization_Penalty_Charging>
  6.3929

> <r_epik_Ionization_Penalty_Neutral>
  0.1929

> <r_epik_State_Penalty>
  5.5117

> <r_epik_Charging_Adjusted_Penalty>
11.9046114385689

> <i_epik_Tot_Q>
1

> <i_epik_Tot_abs_Q>
1

$$$$
