SM02
                    3D
 Structure written by MMmdl.
 32 34  0  0  1  0            999 V2000
   -3.9167    0.3614   -1.9411 C   0  0  0  0  0  0
   -4.6340    1.5701   -1.8933 C   0  0  0  0  0  0
   -4.0131    2.7392   -1.4149 C   0  0  0  0  0  0
   -2.6717    2.7214   -0.9785 C   0  0  0  0  0  0
   -1.9505    1.4945   -1.0301 C   0  0  0  0  0  0
   -2.5776    0.3211   -1.5112 C   0  0  0  0  0  0
   -0.6017    1.5198   -0.5852 C   0  0  0  0  0  0
   -0.0497    2.6659   -0.1237 N   0  0  0  0  0  0
   -0.8120    3.7591   -0.1192 C   0  0  0  0  0  0
   -2.0808    3.8468   -0.5189 N   0  3  0  0  0  0
    0.1723    0.3447   -0.5814 N   0  0  0  0  0  0
    1.5497    0.1801   -0.3626 C   0  0  0  0  0  0
    1.9895   -1.0308    0.2106 C   0  0  0  0  0  0
    3.3603   -1.2591    0.4347 C   0  0  0  0  0  0
    4.3058   -0.2800    0.0779 C   0  0  0  0  0  0
    3.8849    0.9323   -0.5094 C   0  0  0  0  0  0
    2.5087    1.1505   -0.7371 C   0  0  0  0  0  0
    4.9021    1.9872   -0.9188 C   0  0  0  0  0  0
    4.4016    3.2124   -0.7553 F   0  0  0  0  0  0
    6.0143    1.8918   -0.1893 F   0  0  0  0  0  0
    5.2159    1.8193   -2.2027 F   0  0  0  0  0  0
   -4.3938   -0.5354   -2.3087 H   0  0  0  0  0  0
   -5.6619    1.6010   -2.2236 H   0  0  0  0  0  0
   -4.5746    3.6615   -1.3821 H   0  0  0  0  0  0
   -2.0448   -0.6169   -1.5590 H   0  0  0  0  0  0
   -0.3549    4.6664    0.2473 H   0  0  0  0  0  0
   -0.3043   -0.6284   -0.7705 H   0  0  0  0  0  0
    1.2736   -1.7913    0.4872 H   0  0  0  0  0  0
    3.6874   -2.1876    0.8791 H   0  0  0  0  0  0
    5.3551   -0.4692    0.2498 H   0  0  0  0  0  0
    2.2005    2.0660   -1.2188 H   0  0  0  0  0  0
   -2.6457    4.7901   -0.4848 H   0  0  0  0  0  0
  1  6  1  0  0  0
  1  2  2  0  0  0
  1 22  1  0  0  0
  2  3  1  0  0  0
  2 23  1  0  0  0
  3  4  2  0  0  0
  3 24  1  0  0  0
  4 10  1  0  0  0
  4  5  1  0  0  0
  5  6  2  0  0  0
  5  7  1  0  0  0
  6 25  1  0  0  0
  7  8  2  0  0  0
  7 11  1  0  0  0
  8  9  1  0  0  0
  9 10  2  0  0  0
  9 26  1  0  0  0
 10 32  1  0  0  0
 11 12  1  0  0  0
 11 27  1  0  0  0
 12 17  1  0  0  0
 12 13  2  0  0  0
 13 14  1  0  0  0
 13 28  1  0  0  0
 14 15  2  0  0  0
 14 29  1  0  0  0
 15 16  1  0  0  0
 15 30  1  0  0  0
 16 17  2  0  0  0
 16 18  1  0  0  0
 17 31  1  0  0  0
 18 19  1  0  0  0
 18 20  1  0  0  0
 18 21  1  0  0  0
M  CHG  1  10   1
M  END
> <s_m_source_file>
SM02.smi

> <i_m_source_file_index>
1

> <i_lp_mmshare_version>
40011

> <i_f3d_flags>
0

> <s_lp_Force_Field>
OPLS_2005

> <r_lp_Energy>
14.3304268879305

> <b_lp_Chiralities_Consistent>
1

> <s_lp_Variant>
SM02-1

> <s_epik_input>
W2NIXTFbY0hdW2NIXVtjSF1jKGMxMiljKG5bY0hdbjIpW05IXWMzW2NIXVtjSF1bY0hdYyhbY0hdMylDKEYpKEYpRg==

> <s_epik_cmdline>
J2VwaWtfYXBwJywgJy1pbWFlJywgJ1NNMDIuMy4wLm1hZScsICctb21hZScsICdTTTAyLmVwaWsuMy4wLm1hZScsICctcCcsICcwLjAwMDA0NTM5OTkyOTgnLCAnLXBoJywgJzMuMCc=

> <r_lp_tautomer_probability>
0.993507999998615

> <r_epik_Ionization_Penalty>
  0.0506

> <r_epik_Ionization_Penalty_Charging>
  0.0506

> <r_epik_Ionization_Penalty_Neutral>
  0.0000

> <r_epik_State_Penalty>
  0.0219

> <r_epik_Charging_Adjusted_Penalty>
0.0725416117942116

> <i_epik_Tot_Q>
1

> <i_epik_Tot_abs_Q>
1

$$$$
SM02
                    3D
 Structure written by MMmdl.
 31 33  0  0  1  0            999 V2000
   -3.9167    0.3614   -1.9411 C   0  0  0  0  0  0
   -4.6340    1.5701   -1.8933 C   0  0  0  0  0  0
   -4.0131    2.7392   -1.4149 C   0  0  0  0  0  0
   -2.6717    2.7214   -0.9785 C   0  0  0  0  0  0
   -1.9505    1.4945   -1.0301 C   0  0  0  0  0  0
   -2.5776    0.3211   -1.5112 C   0  0  0  0  0  0
   -0.6017    1.5198   -0.5852 C   0  0  0  0  0  0
   -0.0497    2.6659   -0.1237 N   0  0  0  0  0  0
   -0.8120    3.7591   -0.1192 C   0  0  0  0  0  0
   -2.0808    3.8468   -0.5189 N   0  0  0  0  0  0
    0.1723    0.3447   -0.5814 N   0  0  0  0  0  0
    1.5497    0.1801   -0.3626 C   0  0  0  0  0  0
    1.9895   -1.0308    0.2106 C   0  0  0  0  0  0
    3.3603   -1.2591    0.4347 C   0  0  0  0  0  0
    4.3058   -0.2800    0.0779 C   0  0  0  0  0  0
    3.8849    0.9323   -0.5094 C   0  0  0  0  0  0
    2.5087    1.1505   -0.7371 C   0  0  0  0  0  0
    4.9021    1.9872   -0.9188 C   0  0  0  0  0  0
    4.4016    3.2124   -0.7553 F   0  0  0  0  0  0
    6.0143    1.8918   -0.1893 F   0  0  0  0  0  0
    5.2159    1.8193   -2.2027 F   0  0  0  0  0  0
   -4.3938   -0.5354   -2.3087 H   0  0  0  0  0  0
   -5.6619    1.6010   -2.2236 H   0  0  0  0  0  0
   -4.5746    3.6615   -1.3821 H   0  0  0  0  0  0
   -2.0448   -0.6169   -1.5590 H   0  0  0  0  0  0
   -0.3549    4.6664    0.2473 H   0  0  0  0  0  0
   -0.3043   -0.6284   -0.7705 H   0  0  0  0  0  0
    1.2736   -1.7913    0.4872 H   0  0  0  0  0  0
    3.6874   -2.1876    0.8791 H   0  0  0  0  0  0
    5.3551   -0.4692    0.2498 H   0  0  0  0  0  0
    2.2005    2.0660   -1.2188 H   0  0  0  0  0  0
  1  6  1  0  0  0
  1  2  2  0  0  0
  1 22  1  0  0  0
  2  3  1  0  0  0
  2 23  1  0  0  0
  3  4  2  0  0  0
  3 24  1  0  0  0
  4 10  1  0  0  0
  4  5  1  0  0  0
  5  6  2  0  0  0
  5  7  1  0  0  0
  6 25  1  0  0  0
  7  8  2  0  0  0
  7 11  1  0  0  0
  8  9  1  0  0  0
  9 10  2  0  0  0
  9 26  1  0  0  0
 11 12  1  0  0  0
 11 27  1  0  0  0
 12 17  1  0  0  0
 12 13  2  0  0  0
 13 14  1  0  0  0
 13 28  1  0  0  0
 14 15  2  0  0  0
 14 29  1  0  0  0
 15 16  1  0  0  0
 15 30  1  0  0  0
 16 17  2  0  0  0
 16 18  1  0  0  0
 17 31  1  0  0  0
 18 19  1  0  0  0
 18 20  1  0  0  0
 18 21  1  0  0  0
M  END
> <s_m_source_file>
SM02.smi

> <i_m_source_file_index>
1

> <i_lp_mmshare_version>
40011

> <i_f3d_flags>
0

> <s_lp_Force_Field>
OPLS_2005

> <r_lp_Energy>
14.3304268879305

> <b_lp_Chiralities_Consistent>
1

> <s_lp_Variant>
SM02-1

> <s_epik_input>
W2NIXTFbY0hdW2NIXVtjSF1jKGMxMiljKG5bY0hdbjIpW05IXWMzW2NIXVtjSF1bY0hdYyhbY0hdMylDKEYpKEYpRg==

> <s_epik_cmdline>
J2VwaWtfYXBwJywgJy1pbWFlJywgJ1NNMDIuMy4wLm1hZScsICctb21hZScsICdTTTAyLmVwaWsuMy4wLm1hZScsICctcCcsICcwLjAwMDA0NTM5OTkyOTgnLCAnLXBoJywgJzMuMCc=

> <r_lp_tautomer_probability>
0.999978000241998

> <r_epik_Ionization_Penalty>
  2.3377

> <r_epik_Ionization_Penalty_Charging>
  0.0000

> <r_epik_Ionization_Penalty_Neutral>
  2.3377

> <r_epik_State_Penalty>
  2.3481

> <r_epik_Charging_Adjusted_Penalty>
2.3481198435801

> <i_epik_Tot_Q>
0

> <i_epik_Tot_abs_Q>
0

$$$$
SM02
                    3D
 Structure written by MMmdl.
 32 34  0  0  1  0            999 V2000
   -3.9167    0.3614   -1.9411 C   0  0  0  0  0  0
   -4.6340    1.5701   -1.8933 C   0  0  0  0  0  0
   -4.0131    2.7392   -1.4149 C   0  0  0  0  0  0
   -2.6717    2.7214   -0.9785 C   0  0  0  0  0  0
   -1.9505    1.4945   -1.0301 C   0  0  0  0  0  0
   -2.5776    0.3211   -1.5112 C   0  0  0  0  0  0
   -0.6017    1.5198   -0.5852 C   0  0  0  0  0  0
   -0.0497    2.6659   -0.1237 N   0  3  0  0  0  0
   -0.8120    3.7591   -0.1192 C   0  0  0  0  0  0
   -2.0808    3.8468   -0.5189 N   0  0  0  0  0  0
    0.1723    0.3447   -0.5814 N   0  0  0  0  0  0
    1.5497    0.1801   -0.3626 C   0  0  0  0  0  0
    1.9895   -1.0308    0.2106 C   0  0  0  0  0  0
    3.3603   -1.2591    0.4347 C   0  0  0  0  0  0
    4.3058   -0.2800    0.0779 C   0  0  0  0  0  0
    3.8849    0.9323   -0.5094 C   0  0  0  0  0  0
    2.5087    1.1505   -0.7371 C   0  0  0  0  0  0
    4.9021    1.9872   -0.9188 C   0  0  0  0  0  0
    4.4016    3.2124   -0.7553 F   0  0  0  0  0  0
    6.0143    1.8918   -0.1893 F   0  0  0  0  0  0
    5.2159    1.8193   -2.2027 F   0  0  0  0  0  0
   -4.3938   -0.5354   -2.3087 H   0  0  0  0  0  0
   -5.6619    1.6010   -2.2236 H   0  0  0  0  0  0
   -4.5746    3.6615   -1.3821 H   0  0  0  0  0  0
   -2.0448   -0.6169   -1.5590 H   0  0  0  0  0  0
   -0.3549    4.6664    0.2473 H   0  0  0  0  0  0
   -0.3043   -0.6284   -0.7705 H   0  0  0  0  0  0
    1.2736   -1.7913    0.4872 H   0  0  0  0  0  0
    3.6874   -2.1876    0.8791 H   0  0  0  0  0  0
    5.3551   -0.4692    0.2498 H   0  0  0  0  0  0
    2.2005    2.0660   -1.2188 H   0  0  0  0  0  0
    0.9919    2.6713    0.2296 H   0  0  0  0  0  0
  1  6  1  0  0  0
  1  2  2  0  0  0
  1 22  1  0  0  0
  2  3  1  0  0  0
  2 23  1  0  0  0
  3  4  2  0  0  0
  3 24  1  0  0  0
  4 10  1  0  0  0
  4  5  1  0  0  0
  5  6  2  0  0  0
  5  7  1  0  0  0
  6 25  1  0  0  0
  7  8  2  0  0  0
  7 11  1  0  0  0
  8  9  1  0  0  0
  8 32  1  0  0  0
  9 10  2  0  0  0
  9 26  1  0  0  0
 11 12  1  0  0  0
 11 27  1  0  0  0
 12 17  1  0  0  0
 12 13  2  0  0  0
 13 14  1  0  0  0
 13 28  1  0  0  0
 14 15  2  0  0  0
 14 29  1  0  0  0
 15 16  1  0  0  0
 15 30  1  0  0  0
 16 17  2  0  0  0
 16 18  1  0  0  0
 17 31  1  0  0  0
 18 19  1  0  0  0
 18 20  1  0  0  0
 18 21  1  0  0  0
M  CHG  1   8   1
M  END
> <s_m_source_file>
SM02.smi

> <i_m_source_file_index>
1

> <i_lp_mmshare_version>
40011

> <i_f3d_flags>
0

> <s_lp_Force_Field>
OPLS_2005

> <r_lp_Energy>
14.3304268879305

> <b_lp_Chiralities_Consistent>
1

> <s_lp_Variant>
SM02-1

> <s_epik_input>
W2NIXTFbY0hdW2NIXVtjSF1jKGMxMiljKG5bY0hdbjIpW05IXWMzW2NIXVtjSF1bY0hdYyhbY0hdMylDKEYpKEYpRg==

> <s_epik_cmdline>
J2VwaWtfYXBwJywgJy1pbWFlJywgJ1NNMDIuMy4wLm1hZScsICctb21hZScsICdTTTAyLmVwaWsuMy4wLm1hZScsICctcCcsICcwLjAwMDA0NTM5OTkyOTgnLCAnLXBoJywgJzMuMCc=

> <r_lp_tautomer_probability>
0.00649199999999095

> <r_epik_Ionization_Penalty>
  0.1596

> <r_epik_Ionization_Penalty_Charging>
  0.1595

> <r_epik_Ionization_Penalty_Neutral>
  0.0000

> <r_epik_State_Penalty>
  2.4041

> <r_epik_Charging_Adjusted_Penalty>
2.56361061172087

> <i_epik_Tot_Q>
1

> <i_epik_Tot_abs_Q>
1

$$$$
