SM14
                    3D
 Structure written by MMmdl.
 28 30  0  0  1  0            999 V2000
   -2.8128   -0.0462   -0.0245 C   0  0  0  0  0  0
   -2.0828   -1.2349    0.1675 C   0  0  0  0  0  0
   -0.6745   -1.2054    0.1723 C   0  0  0  0  0  0
    0.0104    0.0165   -0.0169 C   0  0  0  0  0  0
   -0.7266    1.2057   -0.2051 C   0  0  0  0  0  0
   -2.1346    1.1736   -0.2105 C   0  0  0  0  0  0
    1.4233    0.0642   -0.0106 N   0  0  0  0  0  0
    2.1528   -0.8545   -0.6729 C   0  0  0  0  0  0
    3.4740   -0.7030   -0.6161 N   0  3  0  0  0  0
    3.6008    0.4386    0.1643 C   0  0  0  0  0  0
    2.3271    0.9481    0.5625 C   0  0  0  0  0  0
    2.2083    2.0991    1.3627 C   0  0  0  0  0  0
    3.3751    2.7691    1.7773 C   0  0  0  0  0  0
    4.6447    2.2870    1.3935 C   0  0  0  0  0  0
    4.7569    1.1291    0.5939 C   0  0  0  0  0  0
    5.7936    2.9585    1.8070 N   0  0  0  0  0  0
   -3.8926   -0.0699   -0.0281 H   0  0  0  0  0  0
   -2.6035   -2.1699    0.3134 H   0  0  0  0  0  0
   -0.1269   -2.1235    0.3278 H   0  0  0  0  0  0
   -0.2168    2.1463   -0.3530 H   0  0  0  0  0  0
   -2.6942    2.0854   -0.3584 H   0  0  0  0  0  0
    1.7056   -1.6650   -1.2300 H   0  0  0  0  0  0
    1.2362    2.4641    1.6586 H   0  0  0  0  0  0
    3.2919    3.6540    2.3917 H   0  0  0  0  0  0
    5.7307    0.7627    0.3036 H   0  0  0  0  0  0
    5.7089    3.8610    2.4301 H   0  0  0  0  0  0
    6.7852    2.5861    1.5102 H   0  0  0  0  0  0
    4.1322   -1.4181   -1.1314 H   0  0  0  0  0  0
  1  6  1  0  0  0
  1  2  2  0  0  0
  1 17  1  0  0  0
  2  3  1  0  0  0
  2 18  1  0  0  0
  3  4  2  0  0  0
  3 19  1  0  0  0
  4  5  1  0  0  0
  4  7  1  0  0  0
  5  6  2  0  0  0
  5 20  1  0  0  0
  6 21  1  0  0  0
  7 11  1  0  0  0
  7  8  1  0  0  0
  8  9  2  0  0  0
  8 22  1  0  0  0
  9 10  1  0  0  0
  9 28  1  0  0  0
 10 15  2  0  0  0
 10 11  1  0  0  0
 11 12  2  0  0  0
 12 13  1  0  0  0
 12 23  1  0  0  0
 13 14  2  0  0  0
 13 24  1  0  0  0
 14 15  1  0  0  0
 14 16  1  0  0  0
 15 25  1  0  0  0
 16 26  1  0  0  0
 16 27  1  0  0  0
M  CHG  1   9   1
M  END
> <s_m_source_file>
SM14.smi

> <i_m_source_file_index>
1

> <i_lp_mmshare_version>
40011

> <i_f3d_flags>
0

> <s_lp_Force_Field>
OPLS_2005

> <r_lp_Energy>
14.6639686925677

> <b_lp_Chiralities_Consistent>
1

> <s_lp_Variant>
SM14-1

> <s_epik_input>
W2NIXTFbY0hdW2NIXVtjSF1bY0hdYzEtbihbY0hdbjIpYyhjMjMpW2NIXVtjSF1jKFtjSF0zKVtOSDJd

> <s_epik_cmdline>
J2VwaWtfYXBwJywgJy1pbWFlJywgJ1NNMTQuNi4zLm1hZScsICctb21hZScsICdTTTE0LmVwaWsuNi4zLm1hZScsICctcCcsICcwLjAwMDA0NTM5OTkyOTgnLCAnLXBoJywgJzYuMyc=

> <r_epik_Ionization_Penalty>
  0.3786

> <r_epik_Ionization_Penalty_Charging>
  0.3786

> <r_epik_Ionization_Penalty_Neutral>
  0.0000

> <r_epik_State_Penalty>
  0.2354

> <r_epik_Charging_Adjusted_Penalty>
0.614029697741403

> <i_epik_Tot_Q>
1

> <i_epik_Tot_abs_Q>
1

$$$$
SM14
                    3D
 Structure written by MMmdl.
 27 29  0  0  1  0            999 V2000
   -2.8128   -0.0462   -0.0245 C   0  0  0  0  0  0
   -2.0828   -1.2349    0.1675 C   0  0  0  0  0  0
   -0.6745   -1.2054    0.1723 C   0  0  0  0  0  0
    0.0104    0.0165   -0.0169 C   0  0  0  0  0  0
   -0.7266    1.2057   -0.2051 C   0  0  0  0  0  0
   -2.1346    1.1736   -0.2105 C   0  0  0  0  0  0
    1.4233    0.0642   -0.0106 N   0  0  0  0  0  0
    2.1528   -0.8545   -0.6729 C   0  0  0  0  0  0
    3.4740   -0.7030   -0.6161 N   0  0  0  0  0  0
    3.6008    0.4386    0.1643 C   0  0  0  0  0  0
    2.3271    0.9481    0.5625 C   0  0  0  0  0  0
    2.2083    2.0991    1.3627 C   0  0  0  0  0  0
    3.3751    2.7691    1.7773 C   0  0  0  0  0  0
    4.6447    2.2870    1.3935 C   0  0  0  0  0  0
    4.7569    1.1291    0.5939 C   0  0  0  0  0  0
    5.7936    2.9585    1.8070 N   0  0  0  0  0  0
   -3.8926   -0.0699   -0.0281 H   0  0  0  0  0  0
   -2.6035   -2.1699    0.3134 H   0  0  0  0  0  0
   -0.1269   -2.1235    0.3278 H   0  0  0  0  0  0
   -0.2168    2.1463   -0.3530 H   0  0  0  0  0  0
   -2.6942    2.0854   -0.3584 H   0  0  0  0  0  0
    1.7056   -1.6650   -1.2300 H   0  0  0  0  0  0
    1.2362    2.4641    1.6586 H   0  0  0  0  0  0
    3.2919    3.6540    2.3917 H   0  0  0  0  0  0
    5.7307    0.7627    0.3036 H   0  0  0  0  0  0
    5.7089    3.8610    2.4301 H   0  0  0  0  0  0
    6.7852    2.5861    1.5102 H   0  0  0  0  0  0
  1  6  1  0  0  0
  1  2  2  0  0  0
  1 17  1  0  0  0
  2  3  1  0  0  0
  2 18  1  0  0  0
  3  4  2  0  0  0
  3 19  1  0  0  0
  4  5  1  0  0  0
  4  7  1  0  0  0
  5  6  2  0  0  0
  5 20  1  0  0  0
  6 21  1  0  0  0
  7 11  1  0  0  0
  7  8  1  0  0  0
  8  9  2  0  0  0
  8 22  1  0  0  0
  9 10  1  0  0  0
 10 15  2  0  0  0
 10 11  1  0  0  0
 11 12  2  0  0  0
 12 13  1  0  0  0
 12 23  1  0  0  0
 13 14  2  0  0  0
 13 24  1  0  0  0
 14 15  1  0  0  0
 14 16  1  0  0  0
 15 25  1  0  0  0
 16 26  1  0  0  0
 16 27  1  0  0  0
M  END
> <s_m_source_file>
SM14.smi

> <i_m_source_file_index>
1

> <i_lp_mmshare_version>
40011

> <i_f3d_flags>
0

> <s_lp_Force_Field>
OPLS_2005

> <r_lp_Energy>
14.6639686925677

> <b_lp_Chiralities_Consistent>
1

> <s_lp_Variant>
SM14-1

> <s_epik_input>
W2NIXTFbY0hdW2NIXVtjSF1bY0hdYzEtbihbY0hdbjIpYyhjMjMpW2NIXVtjSF1jKFtjSF0zKVtOSDJd

> <s_epik_cmdline>
J2VwaWtfYXBwJywgJy1pbWFlJywgJ1NNMTQuNi4zLm1hZScsICctb21hZScsICdTTTE0LmVwaWsuNi4zLm1hZScsICctcCcsICcwLjAwMDA0NTM5OTkyOTgnLCAnLXBoJywgJzYuMyc=

> <r_epik_Ionization_Penalty>
  0.4453

> <r_epik_Ionization_Penalty_Charging>
  0.0000

> <r_epik_Ionization_Penalty_Neutral>
  0.4453

> <r_epik_State_Penalty>
  0.6611

> <r_epik_Charging_Adjusted_Penalty>
0.661109400642318

> <i_epik_Tot_Q>
0

> <i_epik_Tot_abs_Q>
0

$$$$
SM14
                    3D
 Structure written by MMmdl.
 28 30  0  0  1  0            999 V2000
   -2.8128   -0.0462   -0.0245 C   0  0  0  0  0  0
   -2.0828   -1.2349    0.1675 C   0  0  0  0  0  0
   -0.6745   -1.2054    0.1723 C   0  0  0  0  0  0
    0.0104    0.0165   -0.0169 C   0  0  0  0  0  0
   -0.7266    1.2057   -0.2051 C   0  0  0  0  0  0
   -2.1346    1.1736   -0.2105 C   0  0  0  0  0  0
    1.4233    0.0642   -0.0106 N   0  0  0  0  0  0
    2.1528   -0.8545   -0.6729 C   0  0  0  0  0  0
    3.4740   -0.7030   -0.6161 N   0  0  0  0  0  0
    3.6008    0.4386    0.1643 C   0  0  0  0  0  0
    2.3271    0.9481    0.5625 C   0  0  0  0  0  0
    2.2083    2.0991    1.3627 C   0  0  0  0  0  0
    3.3751    2.7691    1.7773 C   0  0  0  0  0  0
    4.6447    2.2870    1.3935 C   0  0  0  0  0  0
    4.7569    1.1291    0.5939 C   0  0  0  0  0  0
    5.7936    2.9585    1.8070 N   0  3  0  0  0  0
   -3.8926   -0.0699   -0.0281 H   0  0  0  0  0  0
   -2.6035   -2.1699    0.3134 H   0  0  0  0  0  0
   -0.1269   -2.1235    0.3278 H   0  0  0  0  0  0
   -0.2168    2.1463   -0.3530 H   0  0  0  0  0  0
   -2.6942    2.0854   -0.3584 H   0  0  0  0  0  0
    1.7056   -1.6650   -1.2300 H   0  0  0  0  0  0
    1.2362    2.4641    1.6586 H   0  0  0  0  0  0
    3.2919    3.6540    2.3917 H   0  0  0  0  0  0
    5.7307    0.7627    0.3036 H   0  0  0  0  0  0
    5.5100    3.8292    2.4165 H   0  0  0  0  0  0
    6.3581    3.2963    0.9254 H   0  0  0  0  0  0
    6.4194    2.2801    2.4054 H   0  0  0  0  0  0
  1  6  1  0  0  0
  1  2  2  0  0  0
  1 17  1  0  0  0
  2  3  1  0  0  0
  2 18  1  0  0  0
  3  4  2  0  0  0
  3 19  1  0  0  0
  4  5  1  0  0  0
  4  7  1  0  0  0
  5  6  2  0  0  0
  5 20  1  0  0  0
  6 21  1  0  0  0
  7 11  1  0  0  0
  7  8  1  0  0  0
  8  9  2  0  0  0
  8 22  1  0  0  0
  9 10  1  0  0  0
 10 15  2  0  0  0
 10 11  1  0  0  0
 11 12  2  0  0  0
 12 13  1  0  0  0
 12 23  1  0  0  0
 13 14  2  0  0  0
 13 24  1  0  0  0
 14 15  1  0  0  0
 14 16  1  0  0  0
 15 25  1  0  0  0
 16 26  1  0  0  0
 16 27  1  0  0  0
 16 28  1  0  0  0
M  CHG  1  16   1
M  END
> <s_m_source_file>
SM14.smi

> <i_m_source_file_index>
1

> <i_lp_mmshare_version>
40011

> <i_f3d_flags>
0

> <s_lp_Force_Field>
OPLS_2005

> <r_lp_Energy>
14.6639686925677

> <b_lp_Chiralities_Consistent>
1

> <s_lp_Variant>
SM14-1

> <s_epik_input>
W2NIXTFbY0hdW2NIXVtjSF1bY0hdYzEtbihbY0hdbjIpYyhjMjMpW2NIXVtjSF1jKFtjSF0zKVtOSDJd

> <s_epik_cmdline>
J2VwaWtfYXBwJywgJy1pbWFlJywgJ1NNMTQuNi4zLm1hZScsICctb21hZScsICdTTTE0LmVwaWsuNi4zLm1hZScsICctcCcsICcwLjAwMDA0NTM5OTkyOTgnLCAnLXBoJywgJzYuMyc=

> <r_epik_Ionization_Penalty>
  3.4605

> <r_epik_Ionization_Penalty_Charging>
  3.4234

> <r_epik_Ionization_Penalty_Neutral>
  0.0371

> <r_epik_State_Penalty>
  4.9774

> <r_epik_Charging_Adjusted_Penalty>
8.40083982054809

> <i_epik_Tot_Q>
1

> <i_epik_Tot_abs_Q>
1

$$$$
