SM19
                    3D
 Structure written by MMmdl.
 38 40  0  0  1  0            999 V2000
   -2.2523    1.0144    0.0032 C   0  0  0  0  0  0
   -0.7470    1.2913    0.0058 C   0  0  0  0  0  0
   -0.0550    0.0500    0.0117 O   0  0  0  0  0  0
    1.3233    0.0708    0.0023 C   0  0  0  0  0  0
    1.9832   -1.1746   -0.0029 C   0  0  0  0  0  0
    3.3896   -1.2515   -0.0146 C   0  0  0  0  0  0
    4.1841   -0.0837   -0.0204 C   0  0  0  0  0  0
    3.5076    1.1714   -0.0128 C   0  0  0  0  0  0
    2.1027    1.2532   -0.0024 C   0  0  0  0  0  0
    4.6858    2.4816   -0.0169 S   0  0  0  0  0  0
    5.9661    1.2667   -0.0306 C   0  0  0  0  0  0
    5.5746   -0.0161   -0.0314 N   0  0  0  0  0  0
    7.3294    1.6634   -0.0303 N   0  0  0  0  0  0
    8.4315    0.8902   -0.0687 C   0  0  0  0  0  0
    8.4284   -0.3386   -0.1426 O   0  0  0  0  0  0
    9.7659    1.6356   -0.0186 C   0  0  0  0  0  0
   10.1716    1.8963    1.4217 C   0  0  0  0  0  0
   10.9728    0.9632    2.1122 C   0  0  0  0  0  0
   11.3462    1.2038    3.4483 C   0  0  0  0  0  0
   10.9205    2.3759    4.1040 C   0  0  0  0  0  0
   10.1175    3.3126    3.4163 C   0  0  0  0  0  0
    9.7485    3.0715    2.0780 C   0  0  0  0  0  0
    9.5743    4.7569    4.1932 Cl  0  0  0  0  0  0
   11.3911    2.6450    5.7446 Cl  0  0  0  0  0  0
   -2.8005    1.9680   -0.0014 H   0  0  0  0  0  0
   -2.5212    0.4412    0.9027 H   0  0  0  0  0  0
   -2.5169    0.4350   -0.8936 H   0  0  0  0  0  0
   -0.4781    1.8646   -0.8937 H   0  0  0  0  0  0
   -0.4824    1.8708    0.9026 H   0  0  0  0  0  0
    1.4029   -2.0857    0.0016 H   0  0  0  0  0  0
    3.8688   -2.2194   -0.0188 H   0  0  0  0  0  0
    1.6490    2.2322    0.0024 H   0  0  0  0  0  0
    7.5915    2.7312    0.0049 H   0  0  0  0  0  0
   10.5433    1.0290   -0.5060 H   0  0  0  0  0  0
    9.6686    2.5974   -0.5435 H   0  0  0  0  0  0
   11.2996    0.0586    1.6198 H   0  0  0  0  0  0
   11.9597    0.4847    3.9710 H   0  0  0  0  0  0
    9.1331    3.7896    1.5561 H   0  0  0  0  0  0
  1  2  1  0  0  0
  1 25  1  0  0  0
  1 26  1  0  0  0
  1 27  1  0  0  0
  2  3  1  0  0  0
  2 28  1  0  0  0
  2 29  1  0  0  0
  3  4  1  0  0  0
  4  9  1  0  0  0
  4  5  2  0  0  0
  5  6  1  0  0  0
  5 30  1  0  0  0
  6  7  2  0  0  0
  6 31  1  0  0  0
  7 12  1  0  0  0
  7  8  1  0  0  0
  8  9  2  0  0  0
  8 10  1  0  0  0
  9 32  1  0  0  0
 10 11  1  0  0  0
 11 12  2  0  0  0
 11 13  1  0  0  0
 13 14  1  0  0  0
 13 33  1  0  0  0
 14 15  2  0  0  0
 14 16  1  0  0  0
 16 17  1  0  0  0
 16 34  1  0  0  0
 16 35  1  0  0  0
 17 22  1  0  0  0
 17 18  2  0  0  0
 18 19  1  0  0  0
 18 36  1  0  0  0
 19 20  2  0  0  0
 19 37  1  0  0  0
 20 21  1  0  0  0
 20 24  1  0  0  0
 21 22  2  0  0  0
 21 23  1  0  0  0
 22 38  1  0  0  0
M  END
> <s_m_source_file>
SM19.smi

> <i_m_source_file_index>
1

> <i_lp_mmshare_version>
40011

> <i_f3d_flags>
0

> <s_lp_Force_Field>
OPLS_2005

> <r_lp_Energy>
15.2521308325763

> <b_lp_Chiralities_Consistent>
1

> <s_lp_Variant>
SM19-1

> <s_epik_input>
W0NIM11bQ0gyXU9jKFtjSF1bY0hdMSlbY0hdYyhjMTIpc2MobjIpW05IXUMoPU8pW0NIMl1jM1tjSF1bY0hdYyhDbCljKENsKVtjSF0z

> <s_epik_cmdline>
J2VwaWtfYXBwJywgJy1pbWFlJywgJ1NNMTkuNC43Lm1hZScsICctb21hZScsICdTTTE5LmVwaWsuNC43Lm1hZScsICctcCcsICcwLjAwMDA0NTM5OTkyOTgnLCAnLXBoJywgJzQuNyc=

> <r_epik_Ionization_Penalty>
  0.0013

> <r_epik_Ionization_Penalty_Charging>
  0.0000

> <r_epik_Ionization_Penalty_Neutral>
  0.0013

> <r_epik_State_Penalty>
  0.0009

> <r_epik_Charging_Adjusted_Penalty>
0.000920976819239833

> <i_epik_Tot_Q>
0

> <i_epik_Tot_abs_Q>
0

$$$$
SM19
                    3D
 Structure written by MMmdl.
 38 40  0  0  1  0            999 V2000
   -2.2523    1.0144    0.0032 C   0  0  0  0  0  0
   -0.7470    1.2913    0.0058 C   0  0  0  0  0  0
   -0.0550    0.0500    0.0117 O   0  0  0  0  0  0
    1.3233    0.0708    0.0023 C   0  0  0  0  0  0
    1.9832   -1.1746   -0.0029 C   0  0  0  0  0  0
    3.3896   -1.2515   -0.0146 C   0  0  0  0  0  0
    4.1841   -0.0837   -0.0204 C   0  0  0  0  0  0
    3.5076    1.1714   -0.0128 C   0  0  0  0  0  0
    2.1027    1.2532   -0.0024 C   0  0  0  0  0  0
    4.6858    2.4816   -0.0169 S   0  0  0  0  0  0
    5.9661    1.2667   -0.0306 C   0  0  0  0  0  0
    5.5746   -0.0161   -0.0314 N   0  0  0  0  0  0
    7.3294    1.6634   -0.0303 N   0  0  0  0  0  0
    8.4315    0.8902   -0.0687 C   0  0  0  0  0  0
    8.4284   -0.3386   -0.1426 O   0  0  0  0  0  0
    9.7659    1.6356   -0.0186 C   0  0  0  0  0  0
   10.1716    1.8963    1.4217 C   0  0  0  0  0  0
   10.9728    0.9632    2.1122 C   0  0  0  0  0  0
   11.3462    1.2038    3.4483 C   0  0  0  0  0  0
   10.9205    2.3759    4.1040 C   0  0  0  0  0  0
   10.1175    3.3126    3.4163 C   0  0  0  0  0  0
    9.7485    3.0715    2.0780 C   0  0  0  0  0  0
    9.5743    4.7569    4.1932 Cl  0  0  0  0  0  0
   11.3911    2.6450    5.7446 Cl  0  0  0  0  0  0
   -2.8005    1.9680   -0.0014 H   0  0  0  0  0  0
   -2.5212    0.4412    0.9027 H   0  0  0  0  0  0
   -2.5169    0.4350   -0.8936 H   0  0  0  0  0  0
   -0.4781    1.8646   -0.8937 H   0  0  0  0  0  0
   -0.4824    1.8708    0.9026 H   0  0  0  0  0  0
    1.4029   -2.0857    0.0016 H   0  0  0  0  0  0
    3.8688   -2.2194   -0.0188 H   0  0  0  0  0  0
    1.6490    2.2322    0.0024 H   0  0  0  0  0  0
   10.5433    1.0290   -0.5060 H   0  0  0  0  0  0
    9.6686    2.5974   -0.5435 H   0  0  0  0  0  0
   11.2996    0.0586    1.6198 H   0  0  0  0  0  0
   11.9597    0.4847    3.9710 H   0  0  0  0  0  0
    9.1331    3.7896    1.5561 H   0  0  0  0  0  0
    6.1701   -0.9409   -0.0389 H   0  0  0  0  0  0
  1  2  1  0  0  0
  1 25  1  0  0  0
  1 26  1  0  0  0
  1 27  1  0  0  0
  2  3  1  0  0  0
  2 28  1  0  0  0
  2 29  1  0  0  0
  3  4  1  0  0  0
  4  9  1  0  0  0
  4  5  2  0  0  0
  5  6  1  0  0  0
  5 30  1  0  0  0
  6  7  2  0  0  0
  6 31  1  0  0  0
  7 12  1  0  0  0
  7  8  1  0  0  0
  8  9  2  0  0  0
  8 10  1  0  0  0
  9 32  1  0  0  0
 10 11  1  0  0  0
 11 12  1  0  0  0
 11 13  2  0  0  0
 12 38  1  0  0  0
 13 14  1  0  0  0
 14 15  2  0  0  0
 14 16  1  0  0  0
 16 17  1  0  0  0
 16 33  1  0  0  0
 16 34  1  0  0  0
 17 22  1  0  0  0
 17 18  2  0  0  0
 18 19  1  0  0  0
 18 35  1  0  0  0
 19 20  2  0  0  0
 19 36  1  0  0  0
 20 21  1  0  0  0
 20 24  1  0  0  0
 21 22  2  0  0  0
 21 23  1  0  0  0
 22 37  1  0  0  0
M  END
> <s_m_source_file>
SM19.smi

> <i_m_source_file_index>
1

> <i_lp_mmshare_version>
40011

> <i_f3d_flags>
0

> <s_lp_Force_Field>
OPLS_2005

> <r_lp_Energy>
15.2521308325763

> <b_lp_Chiralities_Consistent>
1

> <s_lp_Variant>
SM19-1

> <s_epik_input>
W0NIM11bQ0gyXU9jKFtjSF1bY0hdMSlbY0hdYyhjMTIpc2MobjIpW05IXUMoPU8pW0NIMl1jM1tjSF1bY0hdYyhDbCljKENsKVtjSF0z

> <s_epik_cmdline>
J2VwaWtfYXBwJywgJy1pbWFlJywgJ1NNMTkuNC43Lm1hZScsICctb21hZScsICdTTTE5LmVwaWsuNC43Lm1hZScsICctcCcsICcwLjAwMDA0NTM5OTkyOTgnLCAnLXBoJywgJzQuNyc=

> <r_epik_Ionization_Penalty>
  0.0851

> <r_epik_Ionization_Penalty_Charging>
  0.0087

> <r_epik_Ionization_Penalty_Neutral>
  0.0764

> <r_epik_State_Penalty>
  3.8384

> <r_epik_Charging_Adjusted_Penalty>
3.84709612512248

> <i_epik_Tot_Q>
0

> <i_epik_Tot_abs_Q>
0

$$$$
