SM13
                    3D
 Structure written by MMmdl.
 39 41  0  0  1  0            999 V2000
   -0.8330    5.3726   -0.5058 C   0  0  0  0  0  0
   -1.2206    3.9234   -0.2959 C   0  0  0  0  0  0
   -2.4948    3.5934    0.2082 C   0  0  0  0  0  0
   -2.8526    2.2440    0.3852 C   0  0  0  0  0  0
   -1.9365    1.2238    0.0653 C   0  0  0  0  0  0
   -0.6516    1.5402   -0.4230 C   0  0  0  0  0  0
   -0.3061    2.8988   -0.6155 C   0  0  0  0  0  0
    0.2107    0.4787   -0.7424 N   0  0  0  0  0  0
    1.6161    0.4199   -0.7123 C   0  0  0  0  0  0
    2.3061   -0.6892   -1.2722 C   0  0  0  0  0  0
    1.6440   -1.7650   -1.9049 C   0  0  0  0  0  0
    2.3793   -2.8465   -2.4494 C   0  0  0  0  0  0
    3.7883   -2.8454   -2.3570 C   0  0  0  0  0  0
    4.4451   -1.7628   -1.7214 C   0  0  0  0  0  0
    3.7234   -0.6831   -1.1764 C   0  0  0  0  0  0
    4.3677    0.3400   -0.5719 N   0  0  0  0  0  0
    3.6259    1.3287   -0.0733 C   0  0  0  0  0  0
    2.2970    1.4205   -0.1075 N   0  0  0  0  0  0
    4.4511   -3.9249   -2.9046 O   0  0  0  0  0  0
    5.8687   -3.9573   -2.8276 C   0  0  0  0  0  0
    1.7964   -3.9269   -3.0794 O   0  0  0  0  0  0
    0.3812   -3.9618   -3.1939 C   0  0  0  0  0  0
    0.1918    5.4243   -0.9023 H   0  0  0  0  0  0
   -0.8823    5.9079    0.4539 H   0  0  0  0  0  0
   -1.5269    5.8378   -1.2213 H   0  0  0  0  0  0
   -3.2031    4.3713    0.4537 H   0  0  0  0  0  0
   -3.8313    1.9909    0.7653 H   0  0  0  0  0  0
   -2.2244    0.1918    0.2038 H   0  0  0  0  0  0
    0.6550    3.1712   -1.0248 H   0  0  0  0  0  0
   -0.2029   -0.4849   -1.0746 H   0  0  0  0  0  0
    0.5674   -1.7514   -1.9697 H   0  0  0  0  0  0
    5.5207   -1.7374   -1.6371 H   0  0  0  0  0  0
    4.1550    2.1367    0.4097 H   0  0  0  0  0  0
    6.2410   -4.8752   -3.3061 H   0  0  0  0  0  0
    6.1790   -3.9420   -1.7724 H   0  0  0  0  0  0
    6.2841   -3.0798   -3.3448 H   0  0  0  0  0  0
    0.0782   -4.8809   -3.7168 H   0  0  0  0  0  0
    0.0378   -3.0857   -3.7635 H   0  0  0  0  0  0
   -0.0683   -3.9458   -2.1901 H   0  0  0  0  0  0
  1  2  1  0  0  0
  1 23  1  0  0  0
  1 24  1  0  0  0
  1 25  1  0  0  0
  2  7  1  0  0  0
  2  3  2  0  0  0
  3  4  1  0  0  0
  3 26  1  0  0  0
  4  5  2  0  0  0
  4 27  1  0  0  0
  5  6  1  0  0  0
  5 28  1  0  0  0
  6  7  2  0  0  0
  6  8  1  0  0  0
  7 29  1  0  0  0
  8  9  1  0  0  0
  8 30  1  0  0  0
  9 18  1  0  0  0
  9 10  2  0  0  0
 10 15  1  0  0  0
 10 11  1  0  0  0
 11 12  2  0  0  0
 11 31  1  0  0  0
 12 13  1  0  0  0
 12 21  1  0  0  0
 13 14  2  0  0  0
 13 19  1  0  0  0
 14 15  1  0  0  0
 14 32  1  0  0  0
 15 16  2  0  0  0
 16 17  1  0  0  0
 17 18  2  0  0  0
 17 33  1  0  0  0
 19 20  1  0  0  0
 20 34  1  0  0  0
 20 35  1  0  0  0
 20 36  1  0  0  0
 21 22  1  0  0  0
 22 37  1  0  0  0
 22 38  1  0  0  0
 22 39  1  0  0  0
M  END
> <s_m_source_file>
SM13.smi

> <i_m_source_file_index>
1

> <i_lp_mmshare_version>
40011

> <i_f3d_flags>
0

> <s_lp_Force_Field>
OPLS_2005

> <r_lp_Energy>
20.4945509370014

> <b_lp_Chiralities_Consistent>
1

> <s_lp_Variant>
SM13-1

> <s_epik_input>
W0NIM11jMVtjSF1bY0hdW2NIXWMoW2NIXTEpW05IXWMybltjSF1uYyhjMjMpW2NIXWMoT1tDSDNdKWMoW2NIXTMpT1tDSDNd

> <s_epik_cmdline>
J2VwaWtfYXBwJywgJy1pbWFlJywgJ1NNMTMuMTEuMi5tYWUnLCAnLW9tYWUnLCAnU00xMy5lcGlrLjExLjIubWFlJywgJy1wJywgJzAuMDAwMDQ1Mzk5OTI5OCcsICctcGgnLCAnMTEuMic=

> <r_lp_tautomer_probability>
0.999978000241998

> <r_epik_Ionization_Penalty>
  0.0073

> <r_epik_Ionization_Penalty_Charging>
  0.0000

> <r_epik_Ionization_Penalty_Neutral>
  0.0073

> <r_epik_State_Penalty>
  0.0055

> <r_epik_Charging_Adjusted_Penalty>
0.00546074832513196

> <i_epik_Tot_Q>
0

> <i_epik_Tot_abs_Q>
0

$$$$
SM13
                    3D
 Structure written by MMmdl.
 38 40  0  0  1  0            999 V2000
   -0.8330    5.3726   -0.5058 C   0  0  0  0  0  0
   -1.2206    3.9234   -0.2959 C   0  0  0  0  0  0
   -2.4948    3.5934    0.2082 C   0  0  0  0  0  0
   -2.8526    2.2440    0.3852 C   0  0  0  0  0  0
   -1.9365    1.2238    0.0653 C   0  0  0  0  0  0
   -0.6516    1.5402   -0.4230 C   0  0  0  0  0  0
   -0.3061    2.8988   -0.6155 C   0  0  0  0  0  0
    0.2107    0.4787   -0.7424 N   0  5  0  0  0  0
    1.6161    0.4199   -0.7123 C   0  0  0  0  0  0
    2.3061   -0.6892   -1.2722 C   0  0  0  0  0  0
    1.6440   -1.7650   -1.9049 C   0  0  0  0  0  0
    2.3793   -2.8465   -2.4494 C   0  0  0  0  0  0
    3.7883   -2.8454   -2.3570 C   0  0  0  0  0  0
    4.4451   -1.7628   -1.7214 C   0  0  0  0  0  0
    3.7234   -0.6831   -1.1764 C   0  0  0  0  0  0
    4.3677    0.3400   -0.5719 N   0  0  0  0  0  0
    3.6259    1.3287   -0.0733 C   0  0  0  0  0  0
    2.2970    1.4205   -0.1075 N   0  0  0  0  0  0
    4.4511   -3.9249   -2.9046 O   0  0  0  0  0  0
    5.8687   -3.9573   -2.8276 C   0  0  0  0  0  0
    1.7964   -3.9269   -3.0794 O   0  0  0  0  0  0
    0.3812   -3.9618   -3.1939 C   0  0  0  0  0  0
    0.1918    5.4243   -0.9023 H   0  0  0  0  0  0
   -0.8823    5.9079    0.4539 H   0  0  0  0  0  0
   -1.5269    5.8378   -1.2213 H   0  0  0  0  0  0
   -3.2031    4.3713    0.4537 H   0  0  0  0  0  0
   -3.8313    1.9909    0.7653 H   0  0  0  0  0  0
   -2.2244    0.1918    0.2038 H   0  0  0  0  0  0
    0.6550    3.1712   -1.0248 H   0  0  0  0  0  0
    0.5674   -1.7514   -1.9697 H   0  0  0  0  0  0
    5.5207   -1.7374   -1.6371 H   0  0  0  0  0  0
    4.1550    2.1367    0.4097 H   0  0  0  0  0  0
    6.2410   -4.8752   -3.3061 H   0  0  0  0  0  0
    6.1790   -3.9420   -1.7724 H   0  0  0  0  0  0
    6.2841   -3.0798   -3.3448 H   0  0  0  0  0  0
    0.0782   -4.8809   -3.7168 H   0  0  0  0  0  0
    0.0378   -3.0857   -3.7635 H   0  0  0  0  0  0
   -0.0683   -3.9458   -2.1901 H   0  0  0  0  0  0
  1  2  1  0  0  0
  1 23  1  0  0  0
  1 24  1  0  0  0
  1 25  1  0  0  0
  2  7  1  0  0  0
  2  3  2  0  0  0
  3  4  1  0  0  0
  3 26  1  0  0  0
  4  5  2  0  0  0
  4 27  1  0  0  0
  5  6  1  0  0  0
  5 28  1  0  0  0
  6  7  2  0  0  0
  6  8  1  0  0  0
  7 29  1  0  0  0
  8  9  1  0  0  0
  9 18  1  0  0  0
  9 10  2  0  0  0
 10 15  1  0  0  0
 10 11  1  0  0  0
 11 12  2  0  0  0
 11 30  1  0  0  0
 12 13  1  0  0  0
 12 21  1  0  0  0
 13 14  2  0  0  0
 13 19  1  0  0  0
 14 15  1  0  0  0
 14 31  1  0  0  0
 15 16  2  0  0  0
 16 17  1  0  0  0
 17 18  2  0  0  0
 17 32  1  0  0  0
 19 20  1  0  0  0
 20 33  1  0  0  0
 20 34  1  0  0  0
 20 35  1  0  0  0
 21 22  1  0  0  0
 22 36  1  0  0  0
 22 37  1  0  0  0
 22 38  1  0  0  0
M  CHG  1   8  -1
M  END
> <s_m_source_file>
SM13.smi

> <i_m_source_file_index>
1

> <i_lp_mmshare_version>
40011

> <i_f3d_flags>
0

> <s_lp_Force_Field>
OPLS_2005

> <r_lp_Energy>
20.4945509370014

> <b_lp_Chiralities_Consistent>
1

> <s_lp_Variant>
SM13-1

> <s_epik_input>
W0NIM11jMVtjSF1bY0hdW2NIXWMoW2NIXTEpW05IXWMybltjSF1uYyhjMjMpW2NIXWMoT1tDSDNdKWMoW2NIXTMpT1tDSDNd

> <s_epik_cmdline>
J2VwaWtfYXBwJywgJy1pbWFlJywgJ1NNMTMuMTEuMi5tYWUnLCAnLW9tYWUnLCAnU00xMy5lcGlrLjExLjIubWFlJywgJy1wJywgJzAuMDAwMDQ1Mzk5OTI5OCcsICctcGgnLCAnMTEuMic=

> <r_epik_Ionization_Penalty>
  2.6070

> <r_epik_Ionization_Penalty_Charging>
  2.6070

> <r_epik_Ionization_Penalty_Neutral>
  0.0000

> <r_epik_State_Penalty>
  2.7796

> <r_epik_Charging_Adjusted_Penalty>
5.38657947595276

> <i_epik_Tot_Q>
-1

> <i_epik_Tot_abs_Q>
1

$$$$
